# generated using pymatgen
data_TaTiNbZnC4
_symmetry_space_group_name_H-M   'P 1'
_cell_length_a   6.30167520
_cell_length_b   6.29403024
_cell_length_c   8.89141333
_cell_angle_alpha   89.54848025
_cell_angle_beta   89.89480054
_cell_angle_gamma   90.05619849
_symmetry_Int_Tables_number   1
_chemical_formula_structural   TaTiNbZnC4
_chemical_formula_sum   'Ta4 Ti4 Nb4 Zn4 C16'
_cell_volume   352.64782287
_cell_formula_units_Z   4
loop_
 _symmetry_equiv_pos_site_id
 _symmetry_equiv_pos_as_xyz
  1  'x, y, z'
loop_
 _atom_site_type_symbol
 _atom_site_label
 _atom_site_symmetry_multiplicity
 _atom_site_fract_x
 _atom_site_fract_y
 _atom_site_fract_z
 _atom_site_occupancy
  C  C0  1  0.74898529  0.75047042  0.50340070  1
  C  C1  1  0.74681153  0.24694606  0.49592061  1
  C  C2  1  0.25404403  0.75153611  0.49790846  1
  C  C3  1  0.25037046  0.24839189  0.49512421  1
  C  C4  1  0.49505168  0.49452052  0.25481082  1
  C  C5  1  0.49454564  0.01103292  0.24937367  1
  C  C6  1  0.75013425  0.75967016  0.99700524  1
  C  C7  1  0.74671050  0.23648355  0.99894330  1
  C  C8  1  0.00624168  0.49699399  0.25486611  1
  C  C9  1  0.00583651  0.00971026  0.24915646  1
  C  C10  1  0.25312091  0.76623992  0.99951936  1
  C  C11  1  0.24996938  0.23828395  0.00710341  1
  C  C12  1  0.50445104  0.50268014  0.74358668  1
  C  C13  1  0.50482669  0.99411690  0.74938767  1
  C  C14  1  0.99418361  0.50198659  0.74496362  1
  C  C15  1  0.99394938  0.99549644  0.74971504  1
  Nb  Nb16  1  0.25039440  0.74908641  0.75371103  1
  Nb  Nb17  1  0.00052148  -0.00004696  0.49487270  1
  Nb  Nb18  1  0.00052154  0.49745002  0.49274044  1
  Nb  Nb19  1  0.25493563  0.75278661  0.24683188  1
  Ta  Ta20  1  0.74768793  0.24280983  0.75207916  1
  Ta  Ta21  1  0.74833675  0.73972687  0.76547651  1
  Ta  Ta22  1  0.50019651  0.49738313  0.49523241  1
  Ta  Ta23  1  0.00292718  0.00652047  0.00381939  1
  Ti  Ti24  1  0.50016460  0.99930851  0.49589220  1
  Ti  Ti25  1  0.74725341  0.25260455  0.24588315  1
  Ti  Ti26  1  0.25317225  0.25678917  0.23923630  1
  Ti  Ti27  1  0.49924086  0.00399992  0.00324973  1
  Zn  Zn28  1  0.25547866  0.25507697  0.76264810  1
  Zn  Zn29  1  0.74174637  0.75597160  0.24011494  1
  Zn  Zn30  1  0.49866009  0.49114730  0.00827879  1
  Zn  Zn31  1  0.99952978  0.49482575  0.00914792  1
