# generated using pymatgen
data_ZrTaTiNbC4
_symmetry_space_group_name_H-M   'P 1'
_cell_length_a   6.36816507
_cell_length_b   6.36324420
_cell_length_c   9.01853936
_cell_angle_alpha   90.01931196
_cell_angle_beta   90.01124202
_cell_angle_gamma   90.00181722
_symmetry_Int_Tables_number   1
_chemical_formula_structural   ZrTaTiNbC4
_chemical_formula_sum   'Zr4 Ta4 Ti4 Nb4 C16'
_cell_volume   365.45093251
_cell_formula_units_Z   4
loop_
 _symmetry_equiv_pos_site_id
 _symmetry_equiv_pos_as_xyz
  1  'x, y, z'
loop_
 _atom_site_type_symbol
 _atom_site_label
 _atom_site_symmetry_multiplicity
 _atom_site_fract_x
 _atom_site_fract_y
 _atom_site_fract_z
 _atom_site_occupancy
  C  C0  1  0.74713176  0.75114839  0.50391014  1
  C  C1  1  0.74731448  0.24863173  0.49876603  1
  C  C2  1  0.25355513  0.75164904  0.50001758  1
  C  C3  1  0.25279116  0.24911389  0.49362127  1
  C  C4  1  0.49655629  0.49266835  0.25559900  1
  C  C5  1  0.49550129  0.00732793  0.25156047  1
  C  C6  1  0.74856633  0.76030067  0.99526258  1
  C  C7  1  0.74844342  0.23926393  0.99948131  1
  C  C8  1  0.00314204  0.49302411  0.25540022  1
  C  C9  1  0.00303295  0.00848779  0.25005060  1
  C  C10  1  0.25193981  0.76050025  0.99935233  1
  C  C11  1  0.25128075  0.23873973  0.00517483  1
  C  C12  1  0.50601223  0.50237301  0.74531828  1
  C  C13  1  0.50581656  0.99651482  0.74861148  1
  C  C14  1  0.99434928  0.50262081  0.74596938  1
  C  C15  1  0.99472148  0.99700694  0.74996729  1
  Nb  Nb16  1  0.25100020  0.75240636  0.74823529  1
  Nb  Nb17  1  0.00178590  0.00139917  0.49477018  1
  Nb  Nb18  1  0.00104837  0.49905069  0.49652284  1
  Nb  Nb19  1  0.25106966  0.75329553  0.25253486  1
  Ta  Ta20  1  0.74911316  0.24657543  0.74882256  1
  Ta  Ta21  1  0.74934376  0.75216313  0.74861492  1
  Ta  Ta22  1  0.49874479  0.49874309  0.49657681  1
  Ta  Ta23  1  0.00112894  0.00109932  0.00521919  1
  Ti  Ti24  1  0.49921765  0.00152939  0.49597265  1
  Ti  Ti25  1  0.74812289  0.24833530  0.25235047  1
  Ti  Ti26  1  0.25097416  0.24818401  0.25212554  1
  Ti  Ti27  1  0.49909557  0.00072259  0.00372765  1
  Zr  Zr28  1  0.25084677  0.24724602  0.74847658  1
  Zr  Zr29  1  0.74843832  0.75261317  0.25193405  1
  Zr  Zr30  1  0.49940687  0.49845528  0.00308688  1
  Zr  Zr31  1  0.00050805  0.49881014  0.00296676  1
