# generated using pymatgen
data_YTaTiNbC4
_symmetry_space_group_name_H-M   'P 1'
_cell_length_a   6.45354423
_cell_length_b   6.47749917
_cell_length_c   9.15313441
_cell_angle_alpha   90.37389811
_cell_angle_beta   90.04452248
_cell_angle_gamma   90.03494464
_symmetry_Int_Tables_number   1
_chemical_formula_structural   YTaTiNbC4
_chemical_formula_sum   'Y4 Ta4 Ti4 Nb4 C16'
_cell_volume   382.61856297
_cell_formula_units_Z   4
loop_
 _symmetry_equiv_pos_site_id
 _symmetry_equiv_pos_as_xyz
  1  'x, y, z'
loop_
 _atom_site_type_symbol
 _atom_site_label
 _atom_site_symmetry_multiplicity
 _atom_site_fract_x
 _atom_site_fract_y
 _atom_site_fract_z
 _atom_site_occupancy
  C  C0  1  0.74832784  0.75072716  0.50705644  1
  C  C1  1  0.74753413  0.24835703  0.49835948  1
  C  C2  1  0.25295716  0.75182647  0.49921150  1
  C  C3  1  0.25146724  0.24918224  0.49008046  1
  C  C4  1  0.48990603  0.48767243  0.26297691  1
  C  C5  1  0.48947861  0.00986548  0.25478316  1
  C  C6  1  0.74948741  0.77283621  0.98656969  1
  C  C7  1  0.74828932  0.22806866  0.99778608  1
  C  C8  1  0.00940893  0.48866431  0.26341701  1
  C  C9  1  0.00811441  0.01038778  0.25250110  1
  C  C10  1  0.25201752  0.77057640  0.99958298  1
  C  C11  1  0.25053443  0.22400761  0.01396505  1
  C  C12  1  0.51064793  0.50956773  0.73873347  1
  C  C13  1  0.51058300  0.99332690  0.74511684  1
  C  C14  1  0.99022015  0.51003124  0.73918645  1
  C  C15  1  0.99088207  0.99433504  0.74730688  1
  Nb  Nb16  1  0.25200805  0.75531745  0.74599017  1
  Nb  Nb17  1  0.00063084  0.00271043  0.49598720  1
  Nb  Nb18  1  0.00055922  0.49819145  0.49673610  1
  Nb  Nb19  1  0.25178804  0.75488604  0.25516601  1
  Ta  Ta20  1  0.74900291  0.24394068  0.74731798  1
  Ta  Ta21  1  0.74985734  0.75334713  0.74824602  1
  Ta  Ta22  1  0.49972138  0.49778656  0.49733921  1
  Ta  Ta23  1  0.00145909  0.00186606  0.00401789  1
  Ti  Ti24  1  0.49955088  0.00167272  0.49650244  1
  Ti  Ti25  1  0.74633492  0.24560422  0.25558563  1
  Ti  Ti26  1  0.25065801  0.24640759  0.25328010  1
  Ti  Ti27  1  0.49874119  0.00124711  0.00328372  1
  Y  Y28  1  0.25104183  0.24869684  0.74833273  1
  Y  Y29  1  0.74860794  0.75184505  0.25131412  1
  Y  Y30  1  0.49959072  0.49829888  0.00201091  1
  Y  Y31  1  0.00059149  0.49874911  0.00225624  1
