# generated using pymatgen
data_TaTiNbWC4
_symmetry_space_group_name_H-M   'P 1'
_cell_length_a   6.24819232
_cell_length_b   6.25836661
_cell_length_c   8.82803907
_cell_angle_alpha   90.04358051
_cell_angle_beta   90.00340457
_cell_angle_gamma   89.97670749
_symmetry_Int_Tables_number   1
_chemical_formula_structural   TaTiNbWC4
_chemical_formula_sum   'Ta4 Ti4 Nb4 W4 C16'
_cell_volume   345.20690404
_cell_formula_units_Z   4
loop_
 _symmetry_equiv_pos_site_id
 _symmetry_equiv_pos_as_xyz
  1  'x, y, z'
loop_
 _atom_site_type_symbol
 _atom_site_label
 _atom_site_symmetry_multiplicity
 _atom_site_fract_x
 _atom_site_fract_y
 _atom_site_fract_z
 _atom_site_occupancy
  C  C0  1  0.74552202  0.75274865  0.49803131  1
  C  C1  1  0.74614868  0.24795927  0.49757000  1
  C  C2  1  0.25405993  0.75223024  0.49899558  1
  C  C3  1  0.25373729  0.24769747  0.49976408  1
  C  C4  1  0.50274355  0.49543635  0.24776390  1
  C  C5  1  0.50380864  0.00133024  0.24977405  1
  C  C6  1  0.74841281  0.74781419  0.00179086  1
  C  C7  1  0.74807087  0.25279691  0.00265324  1
  C  C8  1  0.99810328  0.49554820  0.24718917  1
  C  C9  1  0.99733744  0.00272112  0.24916094  1
  C  C10  1  0.25280331  0.75279002  0.00047910  1
  C  C11  1  0.25317017  0.24786403  0.00315090  1
  C  C12  1  0.49893459  0.49845722  0.75066403  1
  C  C13  1  0.49992907  0.00278135  0.75008183  1
  C  C14  1  -0.00017838  0.49829787  0.75173312  1
  C  C15  1  0.99877095  0.00288140  0.75121916  1
  Nb  Nb16  1  0.24999315  0.75199924  0.75008855  1
  Nb  Nb17  1  0.99932392  0.00109336  0.49818681  1
  Nb  Nb18  1  0.99963894  0.49938151  0.49464890  1
  Nb  Nb19  1  0.25237050  0.74956267  0.24891642  1
  Ta  Ta20  1  0.74818773  0.25042411  0.75074910  1
  Ta  Ta21  1  0.74597373  0.75436747  0.74932229  1
  Ta  Ta22  1  0.50031838  0.49851688  0.49461240  1
  Ta  Ta23  1  0.00332787  0.00482565  0.00272365  1
  Ti  Ti24  1  0.50030117  0.00084635  0.49783829  1
  Ti  Ti25  1  0.74861649  0.24806244  0.24883274  1
  Ti  Ti26  1  0.25310501  0.24398205  0.25102598  1
  Ti  Ti27  1  0.49656656  0.00373473  0.00241956  1
  W  W28  1  0.25310351  0.24623696  0.75089986  1
  W  W29  1  0.74812277  0.75352789  0.25017556  1
  W  W30  1  0.48941930  0.49643017  0.00450446  1
  W  W31  1  0.01025680  0.49765398  0.00503417  1
