# generated using pymatgen
data_TaTiNbPtC4
_symmetry_space_group_name_H-M   'P 1'
_cell_length_a   6.34575060
_cell_length_b   6.26749675
_cell_length_c   8.89958013
_cell_angle_alpha   88.04456355
_cell_angle_beta   89.98168077
_cell_angle_gamma   90.84971826
_symmetry_Int_Tables_number   1
_chemical_formula_structural   TaTiNbPtC4
_chemical_formula_sum   'Ta4 Ti4 Nb4 Pt4 C16'
_cell_volume   353.70870534
_cell_formula_units_Z   4
loop_
 _symmetry_equiv_pos_site_id
 _symmetry_equiv_pos_as_xyz
  1  'x, y, z'
loop_
 _atom_site_type_symbol
 _atom_site_label
 _atom_site_symmetry_multiplicity
 _atom_site_fract_x
 _atom_site_fract_y
 _atom_site_fract_z
 _atom_site_occupancy
  C  C0  1  0.74529269  0.74975875  0.51175207  1
  C  C1  1  0.74250211  0.24899982  0.49526052  1
  C  C2  1  0.25301062  0.75142600  0.50316656  1
  C  C3  1  0.24975758  0.25249071  0.48154635  1
  C  C4  1  0.50079020  0.50968498  0.24726134  1
  C  C5  1  0.49863829  0.01355550  0.25016869  1
  C  C6  1  0.74695439  0.74076684  0.01196728  1
  C  C7  1  0.74093101  0.24566846  0.99840584  1
  C  C8  1  0.99979769  0.50687339  0.24642209  1
  C  C9  1  0.00183952  0.01956718  0.24356603  1
  C  C10  1  0.24431413  0.75937361  0.00482489  1
  C  C11  1  0.24701143  0.26401917  0.99842892  1
  C  C12  1  0.49723416  0.48661055  0.75196017  1
  C  C13  1  0.51536079  0.97538236  0.75736685  1
  C  C14  1  0.99119089  0.49798823  0.75451967  1
  C  C15  1  0.99742144  0.99607911  0.75225576  1
  Nb  Nb16  1  0.23856344  0.74752798  0.74697012  1
  Nb  Nb17  1  0.99929007  0.00387304  0.49707475  1
  Nb  Nb18  1  0.00418361  0.49508425  0.49715471  1
  Nb  Nb19  1  0.23598918  0.77191179  0.26182343  1
  Ta  Ta20  1  0.74825134  0.23330061  0.74361641  1
  Ta  Ta21  1  0.73933767  0.73262004  0.75838917  1
  Ta  Ta22  1  0.49903695  0.49900367  0.49307650  1
  Ta  Ta23  1  0.02980869  0.02740385  0.99894249  1
  Ti  Ti24  1  0.49657267  -0.00072373  0.49698559  1
  Ti  Ti25  1  0.75307427  0.24866102  0.24705928  1
  Ti  Ti26  1  0.25975116  0.27075232  0.24429214  1
  Ti  Ti27  1  0.52243613  0.97932082  0.01265577  1
  Pt  Pt28  1  0.28760500  0.21326807  0.72755919  1
  Pt  Pt29  1  0.74883119  0.76283302  0.26071345  1
  Pt  Pt30  1  0.48285621  0.50247494  0.00236372  1
  Pt  Pt31  1  0.98236552  0.49444368  0.00245024  1
