# generated using pymatgen
data_TaTiNbPdC4
_symmetry_space_group_name_H-M   'P 1'
_cell_length_a   6.32796735
_cell_length_b   6.25875909
_cell_length_c   8.90072557
_cell_angle_alpha   88.72790289
_cell_angle_beta   89.86081620
_cell_angle_gamma   90.01856825
_symmetry_Int_Tables_number   1
_chemical_formula_structural   TaTiNbPdC4
_chemical_formula_sum   'Ta4 Ti4 Nb4 Pd4 C16'
_cell_volume   352.42727646
_cell_formula_units_Z   4
loop_
 _symmetry_equiv_pos_site_id
 _symmetry_equiv_pos_as_xyz
  1  'x, y, z'
loop_
 _atom_site_type_symbol
 _atom_site_label
 _atom_site_symmetry_multiplicity
 _atom_site_fract_x
 _atom_site_fract_y
 _atom_site_fract_z
 _atom_site_occupancy
  C  C0  1  0.74799240  0.75023913  0.50862051  1
  C  C1  1  0.74536445  0.24739600  0.49492231  1
  C  C2  1  0.25482523  0.75026935  0.50024384  1
  C  C3  1  0.25020407  0.25102842  0.48918434  1
  C  C4  1  0.49580439  0.49772041  0.25163430  1
  C  C5  1  0.49365368  0.01722719  0.24743582  1
  C  C6  1  0.74764115  0.75425379  0.00304734  1
  C  C7  1  0.74676258  0.24289045  0.99919803  1
  C  C8  1  0.00177291  0.50061900  0.25213863  1
  C  C9  1  0.00440171  0.01249803  0.24699094  1
  C  C10  1  0.25110707  0.75869416  0.00213886  1
  C  C11  1  0.25002674  0.24303457  0.00155673  1
  C  C12  1  0.50641170  0.49789077  0.74790796  1
  C  C13  1  0.50854600  0.98964515  0.75237874  1
  C  C14  1  0.99591330  0.49744932  0.74948428  1
  C  C15  1  0.99497079  0.99333707  0.75207571  1
  Nb  Nb16  1  0.24399308  0.74848400  0.74904604  1
  Nb  Nb17  1  0.00047149  0.99872738  0.49662523  1
  Nb  Nb18  1  0.00099320  0.49740738  0.48841787  1
  Nb  Nb19  1  0.25939520  0.76869784  0.25607159  1
  Ta  Ta20  1  0.75032846  0.23348734  0.74317993  1
  Ta  Ta21  1  0.74506898  0.73142025  0.76645814  1
  Ta  Ta22  1  0.49756432  0.49729374  0.49540390  1
  Ta  Ta23  1  0.00598677  0.00591768  0.00547618  1
  Ti  Ti24  1  0.49877224  0.00024276  0.49931519  1
  Ti  Ti25  1  0.74916917  0.24911015  0.24868635  1
  Ti  Ti26  1  0.25618720  0.26674312  0.23828518  1
  Ti  Ti27  1  0.49987410  0.00597527  0.00228954  1
  Pd  Pd28  1  0.26471339  0.24851718  0.75368761  1
  Pd  Pd29  1  0.73913698  0.75786097  0.24746444  1
  Pd  Pd30  1  0.49659972  0.49301425  0.00431681  1
  Pd  Pd31  1  0.99634751  0.49290784  0.00631767  1
