# generated using pymatgen
data_TaTiNbVC4
_symmetry_space_group_name_H-M   'P 1'
_cell_length_a   6.19175999
_cell_length_b   6.19378031
_cell_length_c   8.74801129
_cell_angle_alpha   89.98182569
_cell_angle_beta   89.98192395
_cell_angle_gamma   90.04082557
_symmetry_Int_Tables_number   1
_chemical_formula_structural   TaTiNbVC4
_chemical_formula_sum   'Ta4 Ti4 Nb4 V4 C16'
_cell_volume   335.48962310
_cell_formula_units_Z   4
loop_
 _symmetry_equiv_pos_site_id
 _symmetry_equiv_pos_as_xyz
  1  'x, y, z'
loop_
 _atom_site_type_symbol
 _atom_site_label
 _atom_site_symmetry_multiplicity
 _atom_site_fract_x
 _atom_site_fract_y
 _atom_site_fract_z
 _atom_site_occupancy
  C  C0  1  0.74689509  0.75145494  0.49758822  1
  C  C1  1  0.74647892  0.24746732  0.49786707  1
  C  C2  1  0.25431683  0.75231285  0.49952322  1
  C  C3  1  0.25303601  0.24815094  0.50128866  1
  C  C4  1  0.50535883  0.49903894  0.24385085  1
  C  C5  1  0.50541581  0.99951509  0.24846362  1
  C  C6  1  0.74813180  0.74530207  0.00578547  1
  C  C7  1  0.74762315  0.25562412  0.00259243  1
  C  C8  1  0.99552094  0.49895029  0.24310749  1
  C  C9  1  0.99551109  0.00086838  0.24882778  1
  C  C10  1  0.25229618  0.74574176  0.00032539  1
  C  C11  1  0.25232926  0.25664655  0.99781686  1
  C  C12  1  0.49632518  0.49490331  0.75444072  1
  C  C13  1  0.49717958  0.00375593  0.75215006  1
  C  C14  1  0.00219195  0.49505036  0.75523559  1
  C  C15  1  0.00160933  0.00420675  0.75183239  1
  Nb  Nb16  1  0.25053650  0.74704575  0.75410117  1
  Nb  Nb17  1  0.00060224  0.00090477  0.49719369  1
  Nb  Nb18  1  0.00011848  0.49931479  0.49289567  1
  Nb  Nb19  1  0.25222955  0.74949261  0.24580127  1
  Ta  Ta20  1  0.74754222  0.25127374  0.75441285  1
  Ta  Ta21  1  0.74751162  0.74657715  0.75743715  1
  Ta  Ta22  1  0.49995642  0.49850946  0.49415873  1
  Ta  Ta23  1  0.00171560  0.00432247  0.00304189  1
  Ti  Ti24  1  0.49994790  0.00030299  0.49692034  1
  Ti  Ti25  1  0.74882750  0.25032194  0.24596109  1
  Ti  Ti26  1  0.25247882  0.25107970  0.24419463  1
  Ti  Ti27  1  0.49908340  0.00270465  0.00326961  1
  V  V28  1  0.25142342  0.25535751  0.75758920  1
  V  V29  1  0.74908589  0.74746346  0.24223997  1
  V  V30  1  0.49567121  0.49703996  0.00431762  1
  V  V31  1  0.00304924  0.49929943  0.00576929  1
