# generated using pymatgen
data_TaTiNbTcC4
_symmetry_space_group_name_H-M   'P 1'
_cell_length_a   6.23117501
_cell_length_b   6.23322248
_cell_length_c   8.82180859
_cell_angle_alpha   90.01072663
_cell_angle_beta   90.02667975
_cell_angle_gamma   90.01304336
_symmetry_Int_Tables_number   1
_chemical_formula_structural   TaTiNbTcC4
_chemical_formula_sum   'Ta4 Ti4 Nb4 Tc4 C16'
_cell_volume   342.64164159
_cell_formula_units_Z   4
loop_
 _symmetry_equiv_pos_site_id
 _symmetry_equiv_pos_as_xyz
  1  'x, y, z'
loop_
 _atom_site_type_symbol
 _atom_site_label
 _atom_site_symmetry_multiplicity
 _atom_site_fract_x
 _atom_site_fract_y
 _atom_site_fract_z
 _atom_site_occupancy
  C  C0  1  0.74758223  0.74827518  0.49747144  1
  C  C1  1  0.74713843  0.24496549  0.49933641  1
  C  C2  1  0.25576890  0.74968145  0.49967076  1
  C  C3  1  0.25488449  0.24586017  0.49141542  1
  C  C4  1  0.50231717  0.48948411  0.25180103  1
  C  C5  1  0.50277676  0.00080083  0.24791377  1
  C  C6  1  0.74617991  0.76376935  -0.00000055  1
  C  C7  1  0.74699818  0.24911800  0.00463800  1
  C  C8  1  0.99763047  0.49380826  0.25108273  1
  C  C9  1  0.99920619  0.99917186  0.24748275  1
  C  C10  1  0.25200040  0.75443362  0.00113613  1
  C  C11  1  0.25032204  0.26933711  0.99539927  1
  C  C12  1  0.49886129  0.49647824  0.75307782  1
  C  C13  1  0.50320031  0.99870966  0.75045690  1
  C  C14  1  0.99958976  0.49717247  0.75424920  1
  C  C15  1  0.99458525  0.99824583  0.75172814  1
  Nb  Nb16  1  0.24865550  0.74844688  0.75268722  1
  Nb  Nb17  1  0.00552514  0.99893110  0.50144570  1
  Nb  Nb18  1  0.00201064  0.49681454  0.49463973  1
  Nb  Nb19  1  0.25782744  0.75155852  0.24538657  1
  Ta  Ta20  1  0.74979447  0.25467582  0.75017298  1
  Ta  Ta21  1  0.74672709  0.75950714  0.75323426  1
  Ta  Ta22  1  0.49826969  0.49653198  0.49740587  1
  Ta  Ta23  1  0.00891195  0.01547610  0.99925368  1
  Ti  Ti24  1  0.49737985  0.99917108  0.50151233  1
  Ti  Ti25  1  0.74979782  0.24175778  0.25077472  1
  Ti  Ti26  1  0.25713933  0.24805205  0.25364538  1
  Ti  Ti27  1  0.49767913  0.01685170  0.99745974  1
  Tc  Tc28  1  0.24986481  0.22458197  0.73827112  1
  Tc  Tc29  1  0.73910785  0.73664172  0.23236692  1
  Tc  Tc30  1  0.52174534  0.50599798  0.01615125  1
  Tc  Tc31  1  0.97052214  0.50569201  0.01873327  1
