# generated using pymatgen
data_TaTiNbReC4
_symmetry_space_group_name_H-M   'P 1'
_cell_length_a   6.22460419
_cell_length_b   6.23846399
_cell_length_c   8.86570859
_cell_angle_alpha   89.90159995
_cell_angle_beta   90.04601256
_cell_angle_gamma   90.03836383
_symmetry_Int_Tables_number   1
_chemical_formula_structural   TaTiNbReC4
_chemical_formula_sum   'Ta4 Ti4 Nb4 Re4 C16'
_cell_volume   344.27222609
_cell_formula_units_Z   4
loop_
 _symmetry_equiv_pos_site_id
 _symmetry_equiv_pos_as_xyz
  1  'x, y, z'
loop_
 _atom_site_type_symbol
 _atom_site_label
 _atom_site_symmetry_multiplicity
 _atom_site_fract_x
 _atom_site_fract_y
 _atom_site_fract_z
 _atom_site_occupancy
  C  C0  1  0.74626701  0.74988051  0.49707360  1
  C  C1  1  0.74649110  0.24661920  0.49872397  1
  C  C2  1  0.25474502  0.75061430  0.50043257  1
  C  C3  1  0.25394923  0.24740352  0.49269145  1
  C  C4  1  0.49991487  0.48946269  0.25338190  1
  C  C5  1  0.50530565  0.00198839  0.24839738  1
  C  C6  1  0.74806545  0.74808657  0.99873988  1
  C  C7  1  0.74934487  0.26308443  0.00438819  1
  C  C8  1  0.99982554  0.49581543  0.25182508  1
  C  C9  1  0.99540534  0.99797385  0.24810648  1
  C  C10  1  0.25342567  0.76366129  0.00117915  1
  C  C11  1  0.25234936  0.25835835  0.98950322  1
  C  C12  1  0.49441835  0.49302665  0.75359307  1
  C  C13  1  0.50416852  0.99885494  0.75031736  1
  C  C14  1  0.00375140  0.49416852  0.75300254  1
  C  C15  1  0.99334147  0.99771892  0.75244383  1
  Nb  Nb16  1  0.24674094  0.74891114  0.75050491  1
  Nb  Nb17  1  0.00134553  0.00150488  0.50297261  1
  Nb  Nb18  1  0.99848952  0.49874339  0.49051574  1
  Nb  Nb19  1  0.25949706  0.75252017  0.24830066  1
  Ta  Ta20  1  0.75229213  0.25539378  0.74987986  1
  Ta  Ta21  1  0.74539146  0.76058765  0.75526430  1
  Ta  Ta22  1  0.50043156  0.49679749  0.49582279  1
  Ta  Ta23  1  0.00586605  0.01148954  0.00046547  1
  Ti  Ti24  1  0.49990542  0.00088807  0.50321381  1
  Ti  Ti25  1  0.74951594  0.24417301  0.24905244  1
  Ti  Ti26  1  0.25771260  0.24410790  0.25647684  1
  Ti  Ti27  1  0.49644259  0.01333150  0.99793865  1
  Re  Re28  1  0.25109667  0.21724353  0.73381432  1
  Re  Re29  1  0.73569640  0.74301842  0.23227213  1
  Re  Re30  1  0.48003709  0.50904449  0.01855637  1
  Re  Re31  1  0.01877017  0.50552748  0.02114942  1
