# generated using pymatgen
data_TaTiNbRhC4
_symmetry_space_group_name_H-M   'P 1'
_cell_length_a   6.28702278
_cell_length_b   6.21920155
_cell_length_c   8.81377232
_cell_angle_alpha   88.33052915
_cell_angle_beta   89.86616001
_cell_angle_gamma   90.15330689
_symmetry_Int_Tables_number   1
_chemical_formula_structural   TaTiNbRhC4
_chemical_formula_sum   'Ta4 Ti4 Nb4 Rh4 C16'
_cell_volume   344.47228520
_cell_formula_units_Z   4
loop_
 _symmetry_equiv_pos_site_id
 _symmetry_equiv_pos_as_xyz
  1  'x, y, z'
loop_
 _atom_site_type_symbol
 _atom_site_label
 _atom_site_symmetry_multiplicity
 _atom_site_fract_x
 _atom_site_fract_y
 _atom_site_fract_z
 _atom_site_occupancy
  C  C0  1  0.74661789  0.75079905  0.51079526  1
  C  C1  1  0.74520650  0.24798294  0.49438263  1
  C  C2  1  0.25505399  0.75174202  0.50061012  1
  C  C3  1  0.25214834  0.25119233  0.48945292  1
  C  C4  1  0.50364420  0.50477335  0.24557239  1
  C  C5  1  0.49821646  0.01654984  0.24835509  1
  C  C6  1  0.74929055  0.75411528  0.00902594  1
  C  C7  1  0.74710611  0.25276562  0.00002451  1
  C  C8  1  0.99814716  0.50603512  0.24484026  1
  C  C9  1  0.00388106  0.01514952  0.24775630  1
  C  C10  1  0.25188834  0.75912835  0.00201941  1
  C  C11  1  0.25254128  0.25928730  0.99143215  1
  C  C12  1  0.49804554  0.48931093  0.75060759  1
  C  C13  1  0.50645343  0.98896243  0.75257046  1
  C  C14  1  0.99816876  0.49017820  0.75028447  1
  C  C15  1  0.99142739  0.99082695  0.75331257  1
  Nb  Nb16  1  0.24642127  0.74399021  0.75535164  1
  Nb  Nb17  1  0.00328674  0.00035088  0.49818862  1
  Nb  Nb18  1  0.99790064  0.50363874  0.48846937  1
  Nb  Nb19  1  0.25929070  0.76788490  0.25163185  1
  Ta  Ta20  1  0.74835170  0.24104885  0.74269955  1
  Ta  Ta21  1  0.74431883  0.73744691  0.76721876  1
  Ta  Ta22  1  0.49849590  0.50073555  0.49337627  1
  Ta  Ta23  1  0.00019401  0.00591573  0.00354215  1
  Ti  Ti24  1  0.49898469  0.99973897  0.49929781  1
  Ti  Ti25  1  0.75017249  0.25273681  0.24773884  1
  Ti  Ti26  1  0.25523094  0.26610308  0.23868854  1
  Ti  Ti27  1  0.49939407  0.00980806  0.00137630  1
  Rh  Rh28  1  0.25325728  0.22291204  0.74729929  1
  Rh  Rh29  1  0.74609193  0.76271696  0.25996790  1
  Rh  Rh30  1  0.50116770  0.47960869  0.00618375  1
  Rh  Rh31  1  0.99960414  0.47656442  0.00792732  1
