# generated using pymatgen
data_ScTaTiNbC4
_symmetry_space_group_name_H-M   'P 1'
_cell_length_a   6.33042111
_cell_length_b   6.33923489
_cell_length_c   8.95494719
_cell_angle_alpha   90.17617092
_cell_angle_beta   89.99311372
_cell_angle_gamma   90.06497160
_symmetry_Int_Tables_number   1
_chemical_formula_structural   ScTaTiNbC4
_chemical_formula_sum   'Sc4 Ta4 Ti4 Nb4 C16'
_cell_volume   359.36033447
_cell_formula_units_Z   4
loop_
 _symmetry_equiv_pos_site_id
 _symmetry_equiv_pos_as_xyz
  1  'x, y, z'
loop_
 _atom_site_type_symbol
 _atom_site_label
 _atom_site_symmetry_multiplicity
 _atom_site_fract_x
 _atom_site_fract_y
 _atom_site_fract_z
 _atom_site_occupancy
  C  C0  1  0.74784640  0.75092244  0.50257129  1
  C  C1  1  0.74730411  0.24829080  0.49804081  1
  C  C2  1  0.25311857  0.75128018  0.49925693  1
  C  C3  1  0.25198899  0.24867388  0.49459049  1
  C  C4  1  0.49588487  0.49329745  0.25525847  1
  C  C5  1  0.49577538  0.00598249  0.25141358  1
  C  C6  1  0.74934100  0.76113897  0.99417297  1
  C  C7  1  0.74823937  0.24040035  0.00030830  1
  C  C8  1  0.00424240  0.49400234  0.25553345  1
  C  C9  1  0.00283279  0.00628479  0.25069449  1
  C  C10  1  0.25201886  0.75883697  0.00019112  1
  C  C11  1  0.25066943  0.23692622  0.00742383  1
  C  C12  1  0.50459297  0.50333217  0.74567862  1
  C  C13  1  0.50453591  0.99754243  0.74869369  1
  C  C14  1  0.99531061  0.50366653  0.74609217  1
  C  C15  1  0.99605788  0.99860239  0.74959846  1
  Nb  Nb16  1  0.25160435  0.75205788  0.75187691  1
  Nb  Nb17  1  0.00038770  0.00173027  0.49614064  1
  Nb  Nb18  1  0.00050142  0.49835077  0.49604828  1
  Nb  Nb19  1  0.25230920  0.75046320  0.24883713  1
  Ta  Ta20  1  0.74850882  0.24870932  0.75249524  1
  Ta  Ta21  1  0.74918295  0.75121460  0.75297914  1
  Ta  Ta22  1  0.49972212  0.49806910  0.49670118  1
  Ta  Ta23  1  0.00083338  0.00264400  0.00364491  1
  Ti  Ti24  1  0.49968082  0.00113058  0.49658628  1
  Ti  Ti25  1  0.74732836  0.24834088  0.24940091  1
  Ti  Ti26  1  0.25141345  0.24875770  0.24830039  1
  Ti  Ti27  1  0.49915784  0.00209878  0.00339860  1
  Sc  Sc28  1  0.25065634  0.24915183  0.75061425  1
  Sc  Sc29  1  0.74892205  0.75087761  0.24922356  1
  Sc  Sc30  1  0.49970313  0.49838416  0.00200712  1
  Sc  Sc31  1  0.00032857  0.49883893  0.00222677  1
