# generated using pymatgen
data_TaTiNbRuC4
_symmetry_space_group_name_H-M   'P 1'
_cell_length_a   6.28122250
_cell_length_b   6.21434616
_cell_length_c   8.79572800
_cell_angle_alpha   88.71539290
_cell_angle_beta   89.88201972
_cell_angle_gamma   90.07904738
_symmetry_Int_Tables_number   1
_chemical_formula_structural   TaTiNbRuC4
_chemical_formula_sum   'Ta4 Ti4 Nb4 Ru4 C16'
_cell_volume   343.24236210
_cell_formula_units_Z   4
loop_
 _symmetry_equiv_pos_site_id
 _symmetry_equiv_pos_as_xyz
  1  'x, y, z'
loop_
 _atom_site_type_symbol
 _atom_site_label
 _atom_site_symmetry_multiplicity
 _atom_site_fract_x
 _atom_site_fract_y
 _atom_site_fract_z
 _atom_site_occupancy
  C  C0  1  0.74607173  0.75177373  0.50729988  1
  C  C1  1  0.74651288  0.24879754  0.49744092  1
  C  C2  1  0.25452669  0.75342541  0.49883220  1
  C  C3  1  0.25224543  0.25161196  0.49211809  1
  C  C4  1  0.50915737  0.50437622  0.24326018  1
  C  C5  1  0.49739087  0.01276223  0.24952946  1
  C  C6  1  0.74813977  0.76115781  0.00746234  1
  C  C7  1  0.75003713  0.25875135  0.00424668  1
  C  C8  1  0.99316189  0.50664202  0.24404061  1
  C  C9  1  0.00467933  0.00995918  0.24923074  1
  C  C10  1  0.25308272  0.75740325  0.00126750  1
  C  C11  1  0.25302970  0.26484083  0.98515454  1
  C  C12  1  0.49501262  0.48935914  0.74951647  1
  C  C13  1  0.50450412  0.99309509  0.75229626  1
  C  C14  1  0.99980280  0.49104911  0.75024359  1
  C  C15  1  0.99163005  0.99260118  0.75257643  1
  Nb  Nb16  1  0.24675180  0.74027210  0.75921427  1
  Nb  Nb17  1  0.00169135  0.99917424  0.49777583  1
  Nb  Nb18  1  0.99809491  0.50281830  0.48652310  1
  Nb  Nb19  1  0.25892630  0.75770683  0.24335870  1
  Ta  Ta20  1  0.74867865  0.25636402  0.75072599  1
  Ta  Ta21  1  0.74472858  0.75437724  0.76509477  1
  Ta  Ta22  1  0.49987665  0.50171728  0.49232034  1
  Ta  Ta23  1  0.99737363  0.01080952  0.00381798  1
  Ti  Ti24  1  0.49904694  0.99924329  0.49963037  1
  Ti  Ti25  1  0.74950788  0.25316612  0.24736742  1
  Ti  Ti26  1  0.25739819  0.25558906  0.24017824  1
  Ti  Ti27  1  0.50229846  0.01005212  0.00208431  1
  Ru  Ru28  1  0.24989849  0.20354342  0.74289880  1
  Ru  Ru29  1  0.73966729  0.76493728  0.26227165  1
  Ru  Ru30  1  0.49931582  0.46845706  0.00847856  1
  Ru  Ru31  1  0.00776002  0.47416606  0.01374381  1
