# generated using pymatgen
data_TaTiNbOsC4
_symmetry_space_group_name_H-M   'P 1'
_cell_length_a   6.25932757
_cell_length_b   6.23344646
_cell_length_c   8.82018178
_cell_angle_alpha   88.23278903
_cell_angle_beta   90.02873980
_cell_angle_gamma   89.59497169
_symmetry_Int_Tables_number   1
_chemical_formula_structural   TaTiNbOsC4
_chemical_formula_sum   'Ta4 Ti4 Nb4 Os4 C16'
_cell_volume   343.96628337
_cell_formula_units_Z   4
loop_
 _symmetry_equiv_pos_site_id
 _symmetry_equiv_pos_as_xyz
  1  'x, y, z'
loop_
 _atom_site_type_symbol
 _atom_site_label
 _atom_site_symmetry_multiplicity
 _atom_site_fract_x
 _atom_site_fract_y
 _atom_site_fract_z
 _atom_site_occupancy
  C  C0  1  0.74840995  0.75064881  0.51140941  1
  C  C1  1  0.74758263  0.24924701  0.49685197  1
  C  C2  1  0.25553264  0.75316625  0.49972467  1
  C  C3  1  0.25595269  0.25010878  0.48766741  1
  C  C4  1  0.50768668  0.50845681  0.23982189  1
  C  C5  1  0.49762546  0.01766468  0.24956192  1
  C  C6  1  0.75344449  0.73965769  0.02015075  1
  C  C7  1  0.75124920  0.25610020  0.00194941  1
  C  C8  1  0.99273326  0.51291008  0.24739106  1
  C  C9  1  0.99876192  0.01099616  0.24848986  1
  C  C10  1  0.26439104  0.75332073  0.00133724  1
  C  C11  1  0.25013335  0.25274970  0.98186447  1
  C  C12  1  0.48998461  0.48659683  0.74960421  1
  C  C13  1  0.50285798  0.99337742  0.75129455  1
  C  C14  1  0.00656534  0.48214375  0.75968468  1
  C  C15  1  0.98733257  0.98664261  0.75363972  1
  Nb  Nb16  1  0.25410387  0.74881339  0.74906965  1
  Nb  Nb17  1  0.99875898  0.99770482  0.49763494  1
  Nb  Nb18  1  0.00391628  0.49477968  0.49863343  1
  Nb  Nb19  1  0.24884016  0.75789231  0.25281961  1
  Ta  Ta20  1  0.73550075  0.24196106  0.74840692  1
  Ta  Ta21  1  0.75794654  0.74252212  0.76257891  1
  Ta  Ta22  1  0.50392540  0.50491277  0.49202525  1
  Ta  Ta23  1  0.00026071  0.02137452  0.00353753  1
  Ti  Ti24  1  0.49919372  0.00333719  0.49608163  1
  Ti  Ti25  1  0.75296279  0.25890631  0.24610091  1
  Ti  Ti26  1  0.26379684  0.25499317  0.24264194  1
  Ti  Ti27  1  0.50215064  0.98692959  0.00627309  1
  Os  Os28  1  0.22800253  0.21190185  0.73287255  1
  Os  Os29  1  0.72469562  0.76943981  0.26598441  1
  Os  Os30  1  0.49454239  0.46223813  0.00420157  1
  Os  Os31  1  0.02115901  0.53850579  0.00069442  1
