# generated using pymatgen
data_TaTiMnNbC4
_symmetry_space_group_name_H-M   'P 1'
_cell_length_a   6.16189381
_cell_length_b   6.16606728
_cell_length_c   8.70057815
_cell_angle_alpha   88.79727709
_cell_angle_beta   89.89146688
_cell_angle_gamma   90.10781206
_symmetry_Int_Tables_number   1
_chemical_formula_structural   TaTiMnNbC4
_chemical_formula_sum   'Ta4 Ti4 Mn4 Nb4 C16'
_cell_volume   330.50140377
_cell_formula_units_Z   4
loop_
 _symmetry_equiv_pos_site_id
 _symmetry_equiv_pos_as_xyz
  1  'x, y, z'
loop_
 _atom_site_type_symbol
 _atom_site_label
 _atom_site_symmetry_multiplicity
 _atom_site_fract_x
 _atom_site_fract_y
 _atom_site_fract_z
 _atom_site_occupancy
  C  C0  1  0.74635492  0.75230288  0.49881780  1
  C  C1  1  0.74661935  0.24909279  0.49733808  1
  C  C2  1  0.25388180  0.75194627  0.49917242  1
  C  C3  1  0.25288042  0.24936799  0.49901278  1
  C  C4  1  0.51011375  0.50867656  0.23894321  1
  C  C5  1  0.50546417  0.00697937  0.24899362  1
  C  C6  1  0.74763227  0.74314204  0.01695304  1
  C  C7  1  0.74942730  0.26260824  0.00343915  1
  C  C8  1  0.99426314  0.50679978  0.23866172  1
  C  C9  1  0.99701637  0.00682477  0.24929305  1
  C  C10  1  0.25189090  0.74208335  0.00128686  1
  C  C11  1  0.25277872  0.26401592  0.98010053  1
  C  C12  1  0.49296374  0.48798325  0.75437748  1
  C  C13  1  0.49763064  0.99727558  0.75299077  1
  C  C14  1  0.00216800  0.49000601  0.75468199  1
  C  C15  1  0.00001515  0.99841776  0.75259230  1
  Nb  Nb16  1  0.24785516  0.73505602  0.75528616  1
  Nb  Nb17  1  0.99986243  0.00136331  0.49861625  1
  Nb  Nb18  1  0.99844079  0.50106353  0.48625976  1
  Nb  Nb19  1  0.25505107  0.75077268  0.24479926  1
  Ta  Ta20  1  0.74767105  0.25581886  0.75549944  1
  Ta  Ta21  1  0.74531248  0.75184404  0.76756916  1
  Ta  Ta22  1  0.50080685  0.49988921  0.49038448  1
  Ta  Ta23  1  0.00283946  0.00556924  0.00363363  1
  Ti  Ti24  1  0.50048834  0.00067926  0.49902325  1
  Ti  Ti25  1  0.75000046  0.25774625  0.24237119  1
  Ti  Ti26  1  0.25551092  0.24984052  0.24177728  1
  Ti  Ti27  1  0.49927128  0.00550658  0.00325266  1
  Mn  Mn28  1  0.25330656  0.20545473  0.74578878  1
  Mn  Mn29  1  0.74466680  0.77675303  0.24990657  1
  Mn  Mn30  1  0.46738192  0.49305916  0.01324305  1
  Mn  Mn31  1  0.03043380  0.49206103  0.01593430  1
