# generated using pymatgen
data_TaTiNbCrC4
_symmetry_space_group_name_H-M   'P 1'
_cell_length_a   6.16423603
_cell_length_b   6.16620008
_cell_length_c   8.73238908
_cell_angle_alpha   89.70596536
_cell_angle_beta   89.97483816
_cell_angle_gamma   90.02485605
_symmetry_Int_Tables_number   1
_chemical_formula_structural   TaTiNbCrC4
_chemical_formula_sum   'Ta4 Ti4 Nb4 Cr4 C16'
_cell_volume   331.91291232
_cell_formula_units_Z   4
loop_
 _symmetry_equiv_pos_site_id
 _symmetry_equiv_pos_as_xyz
  1  'x, y, z'
loop_
 _atom_site_type_symbol
 _atom_site_label
 _atom_site_symmetry_multiplicity
 _atom_site_fract_x
 _atom_site_fract_y
 _atom_site_fract_z
 _atom_site_occupancy
  C  C0  1  0.74722038  0.75039625  0.49853888  1
  C  C1  1  0.74681204  0.24736198  0.49822268  1
  C  C2  1  0.25455541  0.75141315  0.50006045  1
  C  C3  1  0.25391001  0.24744175  0.49909865  1
  C  C4  1  0.50583679  0.49926386  0.24318981  1
  C  C5  1  0.50720235  0.99916595  0.24763998  1
  C  C6  1  0.74801174  0.74433780  0.00792749  1
  C  C7  1  0.74847479  0.26194883  0.00385108  1
  C  C8  1  0.99544134  0.50006400  0.24232885  1
  C  C9  1  0.99459474  0.99993013  0.24823253  1
  C  C10  1  0.25260330  0.74794235  0.00135656  1
  C  C11  1  0.25288611  0.26261911  0.99581576  1
  C  C12  1  0.49415961  0.49293842  0.75468894  1
  C  C13  1  0.49682751  0.00246553  0.75163274  1
  C  C14  1  0.00345356  0.49306034  0.75524916  1
  C  C15  1  0.00121397  0.00281808  0.75205050  1
  Nb  Nb16  1  0.24992888  0.74215313  0.75525878  1
  Nb  Nb17  1  0.00043108  0.00001923  0.50002522  1
  Nb  Nb18  1  0.99888074  0.49931953  0.49165435  1
  Nb  Nb19  1  0.25351863  0.75114512  0.24528379  1
  Ta  Ta20  1  0.74723205  0.25474886  0.75537924  1
  Ta  Ta21  1  0.74810632  0.75241742  0.76323444  1
  Ta  Ta22  1  0.50138979  0.49898697  0.49369711  1
  Ta  Ta23  1  0.00695320  0.01222114  0.00229855  1
  Ti  Ti24  1  0.50086104  0.99922054  0.49925411  1
  Ti  Ti25  1  0.74962844  0.25025078  0.24494659  1
  Ti  Ti26  1  0.25536525  0.25120328  0.25097017  1
  Ti  Ti27  1  0.49643537  0.01003875  0.00216533  1
  Cr  Cr28  1  0.24842510  0.23461378  0.74054792  1
  Cr  Cr29  1  0.74359190  0.73958242  0.23009147  1
  Cr  Cr30  1  0.47940335  0.49975904  0.01172113  1
  Cr  Cr31  1  0.01664518  0.50115248  0.01358773  1
