# generated using pymatgen
data_TaTiNbCdC4
_symmetry_space_group_name_H-M   'P 1'
_cell_length_a   6.42206558
_cell_length_b   6.43751602
_cell_length_c   9.11757822
_cell_angle_alpha   90.14876411
_cell_angle_beta   89.94977928
_cell_angle_gamma   89.83258890
_symmetry_Int_Tables_number   1
_chemical_formula_structural   TaTiNbCdC4
_chemical_formula_sum   'Ta4 Ti4 Nb4 Cd4 C16'
_cell_volume   376.93725980
_cell_formula_units_Z   4
loop_
 _symmetry_equiv_pos_site_id
 _symmetry_equiv_pos_as_xyz
  1  'x, y, z'
loop_
 _atom_site_type_symbol
 _atom_site_label
 _atom_site_symmetry_multiplicity
 _atom_site_fract_x
 _atom_site_fract_y
 _atom_site_fract_z
 _atom_site_occupancy
  C  C0  1  0.74753537  0.74873785  0.50834069  1
  C  C1  1  0.74740042  0.24850991  0.49599202  1
  C  C2  1  0.25476511  0.75350840  0.49592537  1
  C  C3  1  0.24842067  0.24686552  0.49107900  1
  C  C4  1  0.48739395  0.48736746  0.26495509  1
  C  C5  1  0.49611603  0.02099386  0.25129040  1
  C  C6  1  0.74842738  0.77503035  0.98520141  1
  C  C7  1  0.74645180  0.22480822  0.99441391  1
  C  C8  1  0.02107739  0.49871954  0.26255001  1
  C  C9  1  0.01163478  0.01498450  0.25237379  1
  C  C10  1  0.25377069  0.77978239  0.99236964  1
  C  C11  1  0.24878357  0.21731563  0.02035309  1
  C  C12  1  0.50638444  0.51793518  0.73530102  1
  C  C13  1  0.51365815  0.99468298  0.74344894  1
  C  C14  1  0.99303394  0.51948431  0.73282501  1
  C  C15  1  0.98680019  0.99576052  0.74784450  1
  Nb  Nb16  1  0.25044324  0.75966650  0.74706571  1
  Nb  Nb17  1  0.00931808  0.01111950  0.48857088  1
  Nb  Nb18  1  0.99098964  0.50320547  0.49871890  1
  Nb  Nb19  1  0.24908070  0.73167892  0.25654496  1
  Ta  Ta20  1  0.74814750  0.22794255  0.75296186  1
  Ta  Ta21  1  0.74805035  0.74163403  0.75817477  1
  Ta  Ta22  1  0.49691942  0.49142704  0.49976207  1
  Ta  Ta23  1  0.00617800  0.00328557  0.00977941  1
  Ti  Ti24  1  0.50742812  0.99447045  0.49336636  1
  Ti  Ti25  1  0.73688078  0.24706635  0.25108722  1
  Ti  Ti26  1  0.25279666  0.24718060  0.24634732  1
  Ti  Ti27  1  0.50010583  0.99846942  0.00965042  1
  Cd  Cd28  1  0.25281145  0.25282456  0.75987322  1
  Cd  Cd29  1  0.74462072  0.75346444  0.24474213  1
  Cd  Cd30  1  0.49575967  0.49462313  0.00587254  1
  Cd  Cd31  1  0.99881598  0.49745482  0.00321833  1
