# generated using pymatgen
data_TaTiNbMoC4
_symmetry_space_group_name_H-M   'P 1'
_cell_length_a   6.24570293
_cell_length_b   6.25688434
_cell_length_c   8.83015895
_cell_angle_alpha   90.04799677
_cell_angle_beta   90.01062516
_cell_angle_gamma   89.99411409
_symmetry_Int_Tables_number   1
_chemical_formula_structural   TaTiNbMoC4
_chemical_formula_sum   'Ta4 Ti4 Nb4 Mo4 C16'
_cell_volume   345.07048164
_cell_formula_units_Z   4
loop_
 _symmetry_equiv_pos_site_id
 _symmetry_equiv_pos_as_xyz
  1  'x, y, z'
loop_
 _atom_site_type_symbol
 _atom_site_label
 _atom_site_symmetry_multiplicity
 _atom_site_fract_x
 _atom_site_fract_y
 _atom_site_fract_z
 _atom_site_occupancy
  C  C0  1  0.74629278  0.75168926  0.49929340  1
  C  C1  1  0.74649497  0.24751978  0.49803367  1
  C  C2  1  0.25411043  0.75186591  0.49924324  1
  C  C3  1  0.25378593  0.24739027  0.49754034  1
  C  C4  1  0.50086556  0.49377649  0.24866849  1
  C  C5  1  0.50264612  0.00227765  0.24960229  1
  C  C6  1  0.74801912  0.75054012  0.00095171  1
  C  C7  1  0.74808706  0.25150582  0.00287912  1
  C  C8  1  0.00014916  0.49414852  0.24811535  1
  C  C9  1  0.99855887  0.00337714  0.24920889  1
  C  C10  1  0.25309702  0.75713431  0.00061389  1
  C  C11  1  0.25326876  0.24702693  0.00349395  1
  C  C12  1  0.49951048  0.49942187  0.74965667  1
  C  C13  1  0.50097363  0.00129183  0.75022805  1
  C  C14  1  0.99857729  0.49954563  0.75036400  1
  C  C15  1  0.99720438  0.00127672  0.75128442  1
  Nb  Nb16  1  0.24996747  0.74918054  0.75160333  1
  Nb  Nb17  1  0.99931485  0.00108484  0.49861270  1
  Nb  Nb18  1  0.99912457  0.49903668  0.49373325  1
  Nb  Nb19  1  0.25268353  0.74945309  0.24766099  1
  Ta  Ta20  1  0.74774659  0.25268638  0.75312338  1
  Ta  Ta21  1  0.74682598  0.75433220  0.75504397  1
  Ta  Ta22  1  0.50099301  0.49845570  0.49439164  1
  Ta  Ta23  1  0.00399344  0.00561941  0.00272640  1
  Ti  Ti24  1  0.50089485  0.00044434  0.49837359  1
  Ti  Ti25  1  0.74891187  0.24791409  0.24727335  1
  Ti  Ti26  1  0.25434691  0.24537523  0.25273780  1
  Ti  Ti27  1  0.49625920  0.00476279  0.00226758  1
  Mo  Mo28  1  0.25113317  0.24540704  0.74792895  1
  Mo  Mo29  1  0.74699015  0.74912472  0.24354049  1
  Mo  Mo30  1  0.48453290  0.49820915  0.00562717  1
  Mo  Mo31  1  0.01463996  0.49912558  0.00617790  1
