# generated using pymatgen
data_TaTiNbCuC4
_symmetry_space_group_name_H-M   'P 1'
_cell_length_a   6.32583279
_cell_length_b   6.29943425
_cell_length_c   8.74046467
_cell_angle_alpha   88.90198829
_cell_angle_beta   89.59000367
_cell_angle_gamma   92.02054125
_symmetry_Int_Tables_number   1
_chemical_formula_structural   TaTiNbCuC4
_chemical_formula_sum   'Ta4 Ti4 Nb4 Cu4 C16'
_cell_volume   348.00908182
_cell_formula_units_Z   4
loop_
 _symmetry_equiv_pos_site_id
 _symmetry_equiv_pos_as_xyz
  1  'x, y, z'
loop_
 _atom_site_type_symbol
 _atom_site_label
 _atom_site_symmetry_multiplicity
 _atom_site_fract_x
 _atom_site_fract_y
 _atom_site_fract_z
 _atom_site_occupancy
  C  C0  1  0.74948875  0.74695414  0.49898537  1
  C  C1  1  0.74789818  0.24434437  0.49457838  1
  C  C2  1  0.25585940  0.74843561  0.49769248  1
  C  C3  1  0.25141021  0.24726313  0.49499654  1
  C  C4  1  0.50425948  0.50083649  0.24640338  1
  C  C5  1  0.49106065  0.01665990  0.24768760  1
  C  C6  1  0.73643434  0.74596562  0.01043481  1
  C  C7  1  0.75508191  0.23407566  0.99994837  1
  C  C8  1  0.01474151  0.48921822  0.25051443  1
  C  C9  1  0.00010742  0.00245248  0.24635248  1
  C  C10  1  0.24151130  0.77062132  0.99911028  1
  C  C11  1  0.26008901  0.24691258  0.00009002  1
  C  C12  1  0.49968930  0.49308501  0.75004424  1
  C  C13  1  0.51079782  0.98566683  0.75018170  1
  C  C14  1  0.98718797  0.50501465  0.75125625  1
  C  C15  1  0.99620919  0.99502983  0.74859755  1
  Nb  Nb16  1  0.24075862  0.75196067  0.75561297  1
  Nb  Nb17  1  0.99834708  0.99326529  0.49436017  1
  Nb  Nb18  1  0.00865300  0.48944020  0.48937668  1
  Nb  Nb19  1  0.24719111  0.76214544  0.24486631  1
  Ta  Ta20  1  0.75198598  0.23112719  0.74862649  1
  Ta  Ta21  1  0.73920137  0.72899761  0.77848710  1
  Ta  Ta22  1  0.50663574  0.49867519  0.49340222  1
  Ta  Ta23  1  0.01410843  0.01980923  0.00009207  1
  Ti  Ti24  1  0.49663549  -0.00017035  0.49690938  1
  Ti  Ti25  1  0.75626934  0.24645004  0.24376248  1
  Ti  Ti26  1  0.26553456  0.26619775  0.23688867  1
  Ti  Ti27  1  0.49960127  0.00458831  0.00125658  1
  Cu  Cu28  1  0.23537025  0.30008217  0.76890454  1
  Cu  Cu29  1  0.71308269  0.77028665  0.24167412  1
  Cu  Cu30  1  0.51960308  0.46404718  0.00552500  1
  Cu  Cu31  1  0.00519553  0.50056156  0.01338137  1
