# generated using pymatgen
data_TaTiNbCoC4
_symmetry_space_group_name_H-M   'P 1'
_cell_length_a   6.20422821
_cell_length_b   6.13604185
_cell_length_c   8.69187416
_cell_angle_alpha   88.01396108
_cell_angle_beta   89.84489752
_cell_angle_gamma   90.17233883
_symmetry_Int_Tables_number   1
_chemical_formula_structural   TaTiNbCoC4
_chemical_formula_sum   'Ta4 Ti4 Nb4 Co4 C16'
_cell_volume   330.69289592
_cell_formula_units_Z   4
loop_
 _symmetry_equiv_pos_site_id
 _symmetry_equiv_pos_as_xyz
  1  'x, y, z'
loop_
 _atom_site_type_symbol
 _atom_site_label
 _atom_site_symmetry_multiplicity
 _atom_site_fract_x
 _atom_site_fract_y
 _atom_site_fract_z
 _atom_site_occupancy
  C  C0  1  0.74707906  0.74970940  0.50525894  1
  C  C1  1  0.74522230  0.24664566  0.49321085  1
  C  C2  1  0.25476828  0.74995192  0.50152480  1
  C  C3  1  0.25191282  0.25019297  0.49319058  1
  C  C4  1  0.50807160  0.51002008  0.23822913  1
  C  C5  1  0.50398395  0.01240567  0.24668201  1
  C  C6  1  0.74933564  0.73522738  0.01761715  1
  C  C7  1  0.74784541  0.26444067  0.99903385  1
  C  C8  1  0.99419920  0.51072664  0.23809775  1
  C  C9  1  0.99853862  0.01175027  0.24682239  1
  C  C10  1  0.25194385  0.74850107  0.00371594  1
  C  C11  1  0.25198045  0.27235434  0.98690051  1
  C  C12  1  0.49507537  0.48416618  0.75833821  1
  C  C13  1  0.49809556  0.99346620  0.75422054  1
  C  C14  1  0.00072226  0.48474538  0.75848548  1
  C  C15  1  0.99966499  0.99477892  0.75372141  1
  Nb  Nb16  1  0.24795962  0.73490175  0.76084446  1
  Nb  Nb17  1  0.00141731  0.99854623  0.49790742  1
  Nb  Nb18  1  0.99901195  0.50085055  0.48834295  1
  Nb  Nb19  1  0.25767914  0.76922646  0.24904082  1
  Ta  Ta20  1  0.74717009  0.23466740  0.74422352  1
  Ta  Ta21  1  0.74658669  0.72707925  0.77519377  1
  Ta  Ta22  1  0.49928818  0.49948067  0.49290536  1
  Ta  Ta23  1  0.00191738  0.01165512  0.00222989  1
  Ti  Ti24  1  0.49908290  0.99864642  0.49923611  1
  Ti  Ti25  1  0.75073958  0.25895030  0.24387701  1
  Ti  Ti26  1  0.25533058  0.27076970  0.23385745  1
  Ti  Ti27  1  0.49852019  0.01236086  0.00084934  1
  Co  Co28  1  0.25082511  0.25119165  0.75179682  1
  Co  Co29  1  0.74482684  0.75461371  0.25094033  1
  Co  Co30  1  0.50328023  0.47848921  0.00559913  1
  Co  Co31  1  0.99792486  0.47948794  0.00810611  1
