# generated using pymatgen
data_HfTaTiNbC4
_symmetry_space_group_name_H-M   'P 1'
_cell_length_a   6.34699168
_cell_length_b   6.34211853
_cell_length_c   8.98620601
_cell_angle_alpha   90.01417760
_cell_angle_beta   90.00758779
_cell_angle_gamma   90.00435817
_symmetry_Int_Tables_number   1
_chemical_formula_structural   HfTaTiNbC4
_chemical_formula_sum   'Hf4 Ta4 Ti4 Nb4 C16'
_cell_volume   361.72509203
_cell_formula_units_Z   4
loop_
 _symmetry_equiv_pos_site_id
 _symmetry_equiv_pos_as_xyz
  1  'x, y, z'
loop_
 _atom_site_type_symbol
 _atom_site_label
 _atom_site_symmetry_multiplicity
 _atom_site_fract_x
 _atom_site_fract_y
 _atom_site_fract_z
 _atom_site_occupancy
  C  C0  1  0.74710210  0.75101144  0.50272035  1
  C  C1  1  0.74718396  0.24878130  0.49860175  1
  C  C2  1  0.25371729  0.75155152  0.49992206  1
  C  C3  1  0.25283318  0.24927545  0.49491728  1
  C  C4  1  0.49779106  0.49394968  0.25392804  1
  C  C5  1  0.49691651  0.00626826  0.25097271  1
  C  C6  1  0.74861939  0.75726274  0.99671911  1
  C  C7  1  0.74848385  0.24200125  0.99985588  1
  C  C8  1  0.00175948  0.49435463  0.25369068  1
  C  C9  1  0.00163349  0.00730905  0.24967905  1
  C  C10  1  0.25183578  0.75763365  0.99952982  1
  C  C11  1  0.25118503  0.24171727  0.00376372  1
  C  C12  1  0.50456940  0.50114323  0.74688687  1
  C  C13  1  0.50458648  0.99766764  0.74921258  1
  C  C14  1  0.99576690  0.50134327  0.74756062  1
  C  C15  1  0.99606324  0.99828085  0.75050356  1
  Nb  Nb16  1  0.25102983  0.75253679  0.74820347  1
  Nb  Nb17  1  0.00175526  0.00138985  0.49506986  1
  Nb  Nb18  1  0.00099089  0.49906830  0.49652047  1
  Nb  Nb19  1  0.25096211  0.75320009  0.25236796  1
  Ta  Ta20  1  0.74914006  0.24656329  0.74919453  1
  Ta  Ta21  1  0.74933741  0.75207263  0.74871300  1
  Ta  Ta22  1  0.49874487  0.49866148  0.49654083  1
  Ta  Ta23  1  0.00115660  0.00110588  0.00514077  1
  Ti  Ti24  1  0.49941800  0.00136820  0.49592511  1
  Ti  Ti25  1  0.74811359  0.24842060  0.25177505  1
  Ti  Ti26  1  0.25081412  0.24847724  0.25187666  1
  Ti  Ti27  1  0.49920858  0.00061764  0.00399111  1
  Hf  Hf28  1  0.25098974  0.24745741  0.74881497  1
  Hf  Hf29  1  0.74845030  0.75232844  0.25149171  1
  Hf  Hf30  1  0.49940111  0.49835384  0.00298212  1
  Hf  Hf31  1  0.00044042  0.49882712  0.00292831  1
