# generated using pymatgen
data_TaTiNbIrC4
_symmetry_space_group_name_H-M   'P 1'
_cell_length_a   6.31264444
_cell_length_b   6.21632067
_cell_length_c   8.82185055
_cell_angle_alpha   87.96909682
_cell_angle_beta   89.82786808
_cell_angle_gamma   90.09530338
_symmetry_Int_Tables_number   1
_chemical_formula_structural   TaTiNbIrC4
_chemical_formula_sum   'Ta4 Ti4 Nb4 Ir4 C16'
_cell_volume   345.96240602
_cell_formula_units_Z   4
loop_
 _symmetry_equiv_pos_site_id
 _symmetry_equiv_pos_as_xyz
  1  'x, y, z'
loop_
 _atom_site_type_symbol
 _atom_site_label
 _atom_site_symmetry_multiplicity
 _atom_site_fract_x
 _atom_site_fract_y
 _atom_site_fract_z
 _atom_site_occupancy
  C  C0  1  0.74625799  0.75126411  0.51357663  1
  C  C1  1  0.74603683  0.24811512  0.49422016  1
  C  C2  1  0.25594623  0.75205939  0.50070994  1
  C  C3  1  0.25217469  0.25224393  0.49036338  1
  C  C4  1  0.50811347  0.50746161  0.24439814  1
  C  C5  1  0.49821534  0.02030399  0.24871075  1
  C  C6  1  0.74924852  0.75222990  0.01293022  1
  C  C7  1  0.74586638  0.25609340  0.99993625  1
  C  C8  1  0.99371734  0.51254839  0.24287439  1
  C  C9  1  0.00444402  0.01451896  0.24789829  1
  C  C10  1  0.25188965  0.75999957  0.00243820  1
  C  C11  1  0.25136869  0.26385487  0.98718290  1
  C  C12  1  0.49375272  0.48209655  0.75080800  1
  C  C13  1  0.50855621  0.98697107  0.75247935  1
  C  C14  1  0.00350617  0.48465042  0.75097854  1
  C  C15  1  0.98840969  0.98569350  0.75351378  1
  Nb  Nb16  1  0.24598422  0.74439543  0.75546704  1
  Nb  Nb17  1  0.00380785  0.00027102  0.49849410  1
  Nb  Nb18  1  0.99709447  0.50655446  0.48493719  1
  Nb  Nb19  1  0.26613886  0.77045910  0.25186838  1
  Ta  Ta20  1  0.75317970  0.24252840  0.73966587  1
  Ta  Ta21  1  0.74409420  0.74080870  0.76564351  1
  Ta  Ta22  1  0.49906219  0.50140897  0.49363361  1
  Ta  Ta23  1  0.00105546  0.00598505  0.00380932  1
  Ti  Ti24  1  0.49924335  0.99926772  0.50109074  1
  Ti  Ti25  1  0.74942728  0.24970196  0.24963765  1
  Ti  Ti26  1  0.25594380  0.26569900  0.23889890  1
  Ti  Ti27  1  0.49837174  0.01521223  0.99892483  1
  Ir  Ir28  1  0.25076138  0.20649445  0.74513764  1
  Ir  Ir29  1  0.74210594  0.76773702  0.26508489  1
  Ir  Ir30  1  0.50004569  0.48031752  0.00512392  1
  Ir  Ir31  1  0.99617991  0.47305422  0.00956345  1
