# generated using pymatgen
data_TaTiNbNiC4
_symmetry_space_group_name_H-M   'P 1'
_cell_length_a   6.24467448
_cell_length_b   6.17631929
_cell_length_c   8.75947493
_cell_angle_alpha   88.29014789
_cell_angle_beta   89.83920322
_cell_angle_gamma   89.68443400
_symmetry_Int_Tables_number   1
_chemical_formula_structural   TaTiNbNiC4
_chemical_formula_sum   'Ta4 Ti4 Nb4 Ni4 C16'
_cell_volume   337.68836531
_cell_formula_units_Z   4
loop_
 _symmetry_equiv_pos_site_id
 _symmetry_equiv_pos_as_xyz
  1  'x, y, z'
loop_
 _atom_site_type_symbol
 _atom_site_label
 _atom_site_symmetry_multiplicity
 _atom_site_fract_x
 _atom_site_fract_y
 _atom_site_fract_z
 _atom_site_occupancy
  C  C0  1  0.74711864  0.74851050  0.50223600  1
  C  C1  1  0.74511842  0.24563821  0.49288471  1
  C  C2  1  0.25387016  0.74879366  0.49972244  1
  C  C3  1  0.24956002  0.24879605  0.49105317  1
  C  C4  1  0.50147999  0.50319864  0.24361119  1
  C  C5  1  0.50088338  0.01155417  0.24529196  1
  C  C6  1  0.74917967  0.73494759  0.01450024  1
  C  C7  1  0.74656027  0.25485644  0.99801897  1
  C  C8  1  0.99630817  0.50724948  0.24408883  1
  C  C9  1  0.99971909  0.00914205  0.24447205  1
  C  C10  1  0.25351754  0.75442971  0.00211286  1
  C  C11  1  0.25104525  0.26179223  0.99494787  1
  C  C12  1  0.50258069  0.49297655  0.75426336  1
  C  C13  1  0.49958845  0.99361743  0.75370875  1
  C  C14  1  0.00194092  0.48659872  0.75816910  1
  C  C15  1  0.99422937  0.98930152  0.75036772  1
  Nb  Nb16  1  0.24717912  0.74123594  0.75654986  1
  Nb  Nb17  1  0.99763045  0.99487507  0.49635679  1
  Nb  Nb18  1  0.00096461  0.49522782  0.48725148  1
  Nb  Nb19  1  0.25788898  0.76796435  0.24904780  1
  Ta  Ta20  1  0.74655807  0.23010923  0.74394097  1
  Ta  Ta21  1  0.74898795  0.72436853  0.77795197  1
  Ta  Ta22  1  0.49984957  0.49849373  0.49420187  1
  Ta  Ta23  1  0.00978319  0.01721420  0.00081590  1
  Ti  Ti24  1  0.49738992  0.99872800  0.49819599  1
  Ti  Ti25  1  0.74990506  0.25504495  0.24340123  1
  Ti  Ti26  1  0.25674676  0.27065060  0.23458493  1
  Ti  Ti27  1  0.49920694  0.00982216  0.00100071  1
  Ni  Ni28  1  0.26932203  0.28014939  0.77028957  1
  Ni  Ni29  1  0.73412949  0.74495055  0.24047715  1
  Ni  Ni30  1  0.49872990  0.49027449  0.00702584  1
  Ni  Ni31  1  0.99302793  0.48948799  0.00945874  1
