# generated using pymatgen
data_TaTiNbFeC4
_symmetry_space_group_name_H-M   'P 1'
_cell_length_a   6.18884261
_cell_length_b   6.14221372
_cell_length_c   8.68280318
_cell_angle_alpha   88.60206011
_cell_angle_beta   89.83640319
_cell_angle_gamma   90.17657092
_symmetry_Int_Tables_number   1
_chemical_formula_structural   TaTiNbFeC4
_chemical_formula_sum   'Ta4 Ti4 Nb4 Fe4 C16'
_cell_volume   329.95986001
_cell_formula_units_Z   4
loop_
 _symmetry_equiv_pos_site_id
 _symmetry_equiv_pos_as_xyz
  1  'x, y, z'
loop_
 _atom_site_type_symbol
 _atom_site_label
 _atom_site_symmetry_multiplicity
 _atom_site_fract_x
 _atom_site_fract_y
 _atom_site_fract_z
 _atom_site_occupancy
  C  C0  1  0.74622383  0.75216052  0.50151873  1
  C  C1  1  0.74625273  0.24885085  0.49582876  1
  C  C2  1  0.25425361  0.75259319  0.49890603  1
  C  C3  1  0.25194694  0.25013355  0.49731949  1
  C  C4  1  0.51239595  0.50829287  0.23619089  1
  C  C5  1  0.50352557  0.00749027  0.24841019  1
  C  C6  1  0.74768535  0.74892632  0.01441731  1
  C  C7  1  0.75022066  0.26932603  0.00314602  1
  C  C8  1  0.99134275  0.50883001  0.23660188  1
  C  C9  1  0.99963816  0.00718158  0.24866758  1
  C  C10  1  0.25136947  0.74923395  0.00135740  1
  C  C11  1  0.25371890  0.27547155  0.98460734  1
  C  C12  1  0.49206919  0.48701133  0.75483093  1
  C  C13  1  0.49804937  0.99680554  0.75325949  1
  C  C14  1  0.00134751  0.48915967  0.75498383  1
  C  C15  1  0.99855576  0.99805456  0.75278608  1
  Nb  Nb16  1  0.24634001  0.73722326  0.76071969  1
  Nb  Nb17  1  0.00133161  0.00011109  0.49704915  1
  Nb  Nb18  1  0.99780657  0.50271986  0.48570364  1
  Nb  Nb19  1  0.25715344  0.75673806  0.24210952  1
  Ta  Ta20  1  0.74676941  0.25322604  0.75122988  1
  Ta  Ta21  1  0.74462351  0.74872536  0.77199499  1
  Ta  Ta22  1  0.49996793  0.50108206  0.49183011  1
  Ta  Ta23  1  0.99838563  0.01363726  0.00348846  1
  Ti  Ti24  1  0.49939917  0.99898025  0.49846243  1
  Ti  Ti25  1  0.75070337  0.25854509  0.24467890  1
  Ti  Ti26  1  0.25808703  0.25865547  0.23757249  1
  Ti  Ti27  1  0.50059016  0.01111979  0.00240856  1
  Fe  Fe28  1  0.25139646  0.20978374  0.75282307  1
  Fe  Fe29  1  0.73897697  0.75708717  0.25674588  1
  Fe  Fe30  1  0.50202195  0.46812082  0.00759847  1
  Fe  Fe31  1  0.00785104  0.47472289  0.01275282  1
