# generated using pymatgen
data_TaTiNbAgC4
_symmetry_space_group_name_H-M   'P 1'
_cell_length_a   6.41632347
_cell_length_b   6.39977102
_cell_length_c   8.94510197
_cell_angle_alpha   89.74289294
_cell_angle_beta   89.78212824
_cell_angle_gamma   91.24709235
_symmetry_Int_Tables_number   1
_chemical_formula_structural   TaTiNbAgC4
_chemical_formula_sum   'Ta4 Ti4 Nb4 Ag4 C16'
_cell_volume   367.21923479
_cell_formula_units_Z   4
loop_
 _symmetry_equiv_pos_site_id
 _symmetry_equiv_pos_as_xyz
  1  'x, y, z'
loop_
 _atom_site_type_symbol
 _atom_site_label
 _atom_site_symmetry_multiplicity
 _atom_site_fract_x
 _atom_site_fract_y
 _atom_site_fract_z
 _atom_site_occupancy
  C  C0  1  0.74879690  0.74931577  0.50563467  1
  C  C1  1  0.74702790  0.24538234  0.49641678  1
  C  C2  1  0.25493870  0.75169283  0.49744940  1
  C  C3  1  0.24856306  0.24977374  0.49324813  1
  C  C4  1  0.49219313  0.48508546  0.26043494  1
  C  C5  1  0.48704388  0.01448051  0.25044976  1
  C  C6  1  0.73952023  0.77155869  0.99250491  1
  C  C7  1  0.75069618  0.22348796  0.99968968  1
  C  C8  1  0.01263420  0.48444208  0.26093233  1
  C  C9  1  0.00897537  0.00561282  0.24968704  1
  C  C10  1  0.24730186  0.77808329  0.99707087  1
  C  C11  1  0.25248234  0.22583316  0.01276982  1
  C  C12  1  0.51153710  0.50508388  0.73941900  1
  C  C13  1  0.51986914  0.99168708  0.74743980  1
  C  C14  1  0.99102103  0.51826101  0.74241860  1
  C  C15  1  0.99517160  0.99773420  0.74929999  1
  Nb  Nb16  1  0.22956611  0.75751665  0.75046787  1
  Nb  Nb17  1  0.00310682  0.00146426  0.49245727  1
  Nb  Nb18  1  0.00179583  0.49597090  0.48833061  1
  Nb  Nb19  1  0.25721887  0.76663489  0.25065776  1
  Ta  Ta20  1  0.75757892  0.23053943  0.74906812  1
  Ta  Ta21  1  0.73760278  0.73601834  0.76360776  1
  Ta  Ta22  1  0.49931800  0.49422346  0.49693067  1
  Ta  Ta23  1  0.00770459  0.00724707  0.00581281  1
  Ti  Ti24  1  0.50243969  0.99718155  0.49945164  1
  Ti  Ti25  1  0.74725286  0.24414851  0.24874248  1
  Ti  Ti26  1  0.25784102  0.26113172  0.24109834  1
  Ti  Ti27  1  0.50051707  0.00596295  0.00063930  1
  Ag  Ag28  1  0.26143545  0.25701088  0.76028357  1
  Ag  Ag29  1  0.73731926  0.75507737  0.24194210  1
  Ag  Ag30  1  0.49528796  0.49418099  0.00650635  1
  Ag  Ag31  1  0.99624212  0.49817619  0.00913764  1
