# generated using pymatgen
data_Ti3WN4
_symmetry_space_group_name_H-M   'P 1'
_cell_length_a   5.23680870
_cell_length_b   6.01817962
_cell_length_c   7.43751405
_cell_angle_alpha   90.00000000
_cell_angle_beta   90.17250302
_cell_angle_gamma   90.00000000
_symmetry_Int_Tables_number   1
_chemical_formula_structural   Ti3WN4
_chemical_formula_sum   'Ti9 W3 N12'
_cell_volume   234.40004237
_cell_formula_units_Z   3
loop_
 _symmetry_equiv_pos_site_id
 _symmetry_equiv_pos_as_xyz
  1  'x, y, z'
loop_
 _atom_site_type_symbol
 _atom_site_label
 _atom_site_symmetry_multiplicity
 _atom_site_fract_x
 _atom_site_fract_y
 _atom_site_fract_z
 _atom_site_occupancy
  Ti  Ti0  1  0.50137953  0.25482290  0.00058792  1
  Ti  Ti1  1  0.16313528  0.75212605  0.33758984  1
  Ti  Ti2  1  0.50137953  0.74517709  0.00058792  1
  Ti  Ti3  1  -0.00083431  -0.00000000  0.00363761  1
  Ti  Ti4  1  0.85477311  0.75072259  0.66896309  1
  Ti  Ti5  1  0.99167284  0.49999997  0.00997123  1
  Ti  Ti6  1  0.16313528  0.24787388  0.33758984  1
  Ti  Ti7  1  0.85477311  0.24927734  0.66896309  1
  Ti  Ti8  1  0.66803291  -0.00000000  0.33929566  1
  W  W9  1  0.31712853  -0.00000000  0.65513984  1
  W  W10  1  0.32517911  0.49999997  0.67895174  1
  W  W11  1  0.67127183  0.49999997  0.30478948  1
  N  N12  1  0.16648897  0.24512982  0.84367413  1
  N  N13  1  0.50502015  0.26070227  0.49899979  1
  N  N14  1  0.33915029  -0.00000000  0.17047983  1
  N  N15  1  0.16648895  0.75487017  0.84367413  1
  N  N16  1  0.50502015  0.73929766  0.49899979  1
  N  N17  1  0.31927587  0.49999997  0.16620347  1
  N  N18  1  0.83707273  0.23781422  0.16258230  1
  N  N19  1  0.65966536  -0.00000000  0.82684350  1
  N  N20  1  0.98686204  -0.00000000  0.49255240  1
  N  N21  1  0.83707273  0.76218571  0.16258230  1
  N  N22  1  0.67536339  0.49999997  0.83156204  1
  N  N23  1  0.99149235  0.49999997  0.49577881  1
