# generated using pymatgen
data_TiReN2
_symmetry_space_group_name_H-M   'P 1'
_cell_length_a   5.24332527
_cell_length_b   6.19016944
_cell_length_c   7.44771843
_cell_angle_alpha   87.25745073
_cell_angle_beta   90.98627152
_cell_angle_gamma   93.09427105
_symmetry_Int_Tables_number   1
_chemical_formula_structural   TiReN2
_chemical_formula_sum   'Ti6 Re6 N12'
_cell_volume   241.07629579
_cell_formula_units_Z   6
loop_
 _symmetry_equiv_pos_site_id
 _symmetry_equiv_pos_as_xyz
  1  'x, y, z'
loop_
 _atom_site_type_symbol
 _atom_site_label
 _atom_site_symmetry_multiplicity
 _atom_site_fract_x
 _atom_site_fract_y
 _atom_site_fract_z
 _atom_site_occupancy
  Re  Re0  1  0.51699129  0.28755690  0.03922555  1
  Re  Re1  1  0.28580336  0.99724733  0.68370560  1
  Re  Re2  1  0.33956061  0.47136267  0.64032778  1
  Re  Re3  1  0.99381233  0.98106358  0.98656330  1
  Re  Re4  1  0.84744003  0.77662272  0.68114672  1
  Re  Re5  1  0.59445451  0.50775260  0.34763773  1
  Ti  Ti6  1  0.15677698  0.74462896  0.35845496  1
  Ti  Ti7  1  0.49975293  0.76731994  0.99982872  1
  Ti  Ti8  1  0.97643575  0.53049209  0.00961907  1
  Ti  Ti9  1  0.19471705  0.25174826  0.31901389  1
  Ti  Ti10  1  0.86280861  0.22776757  0.66419171  1
  Ti  Ti11  1  0.66981481  0.02136349  0.30991653  1
  N  N12  1  0.20383950  0.24830017  0.85097309  1
  N  N13  1  0.52032667  0.21274452  0.49843224  1
  N  N14  1  0.32972303  0.00327054  0.16035158  1
  N  N15  1  0.20034824  0.68786047  0.80438726  1
  N  N16  1  0.50658247  0.76886896  0.52813858  1
  N  N17  1  0.30830680  0.52440935  0.15942990  1
  N  N18  1  0.87872399  0.22286549  0.14080120  1
  N  N19  1  0.64821193  0.01408195  0.82666578  1
  N  N20  1  0.00123490  0.00360360  0.48301732  1
  N  N21  1  0.82529008  0.74688996  0.18429672  1
  N  N22  1  0.67190524  0.49030154  0.81879578  1
  N  N23  1  0.96713855  0.51187687  0.50507875  1
