# generated using pymatgen
data_TiW3N4
_symmetry_space_group_name_H-M   'P 1'
_cell_length_a   5.46970381
_cell_length_b   5.89994825
_cell_length_c   7.62522297
_cell_angle_alpha   89.82793224
_cell_angle_beta   85.86713212
_cell_angle_gamma   89.92566417
_symmetry_Int_Tables_number   1
_chemical_formula_structural   TiW3N4
_chemical_formula_sum   'Ti3 W9 N12'
_cell_volume   245.43219812
_cell_formula_units_Z   3
loop_
 _symmetry_equiv_pos_site_id
 _symmetry_equiv_pos_as_xyz
  1  'x, y, z'
loop_
 _atom_site_type_symbol
 _atom_site_label
 _atom_site_symmetry_multiplicity
 _atom_site_fract_x
 _atom_site_fract_y
 _atom_site_fract_z
 _atom_site_occupancy
  W  W0  1  0.52254858  0.22986447  0.00836771  1
  W  W1  1  0.31402984  0.01981202  0.65212643  1
  W  W2  1  0.19417832  0.73879919  0.36506868  1
  W  W3  1  0.50764609  0.77159595  0.00594135  1
  W  W4  1  0.32802684  0.47679581  0.66114836  1
  W  W5  1  0.95261058  0.98185122  0.00149666  1
  W  W6  1  0.88658904  0.73586652  0.66483945  1
  W  W7  1  0.63640651  0.51472396  0.30550985  1
  W  W8  1  0.95284120  0.51602355  -0.00031822  1
  N  N9  1  0.16474567  0.24630716  0.85882977  1
  N  N10  1  0.52109398  0.25222983  0.48761922  1
  N  N11  1  0.30150623  0.99904005  0.17189959  1
  N  N12  1  0.19887679  0.75444338  0.84383575  1
  N  N13  1  0.54520409  0.74649012  0.52622609  1
  N  N14  1  0.29659172  0.50187237  0.14222694  1
  N  N15  1  0.84305424  0.24583238  0.17197526  1
  N  N16  1  0.66756134  0.99663293  0.80786434  1
  N  N17  1  0.99314980  0.00660954  0.49481894  1
  N  N18  1  0.89878366  0.75518414  0.20985050  1
  N  N19  1  0.64041080  0.50099889  0.82348145  1
  N  N20  1  0.93580573  0.49172827  0.46311241  1
  Ti  Ti21  1  0.18398946  0.26200709  0.34964151  1
  Ti  Ti22  1  0.87185944  0.26246240  0.66472412  1
  Ti  Ti23  1  0.64248971  0.99282828  0.31971358  1
