# generated using pymatgen
data_TaTi11N12
_symmetry_space_group_name_H-M   'P 1'
_cell_length_a   5.23262790
_cell_length_b   6.01655033
_cell_length_c   7.39421437
_cell_angle_alpha   90.00000000
_cell_angle_beta   89.90502670
_cell_angle_gamma   90.00000000
_symmetry_Int_Tables_number   1
_chemical_formula_structural   TaTi11N12
_chemical_formula_sum   'Ta1 Ti11 N12'
_cell_volume   232.78706628
_cell_formula_units_Z   1
loop_
 _symmetry_equiv_pos_site_id
 _symmetry_equiv_pos_as_xyz
  1  'x, y, z'
loop_
 _atom_site_type_symbol
 _atom_site_label
 _atom_site_symmetry_multiplicity
 _atom_site_fract_x
 _atom_site_fract_y
 _atom_site_fract_z
 _atom_site_occupancy
  Ti  Ti0  1  0.49867571  0.24745212  0.99763341  1
  Ti  Ti1  1  0.33313260  -0.00000000  0.66543319  1
  Ti  Ti2  1  0.16666666  0.75467679  0.33333331  1
  Ti  Ti3  1  0.49867571  0.75254787  0.99763341  1
  Ti  Ti4  1  0.33061332  0.49999997  0.66835239  1
  Ti  Ti5  1  0.00020071  -0.00000000  0.00123350  1
  Ti  Ti6  1  0.83465760  0.75254781  0.66903328  1
  Ti  Ti7  1  0.00271999  0.49999997  0.99831424  1
  Ti  Ti8  1  0.16666666  0.24532314  0.33333331  1
  Ti  Ti9  1  0.83465760  0.24745212  0.66903328  1
  Ti  Ti10  1  0.66666663  -0.00000000  0.33333331  1
  Ta  Ta11  1  0.66666663  0.49999997  0.33333331  1
  N  N12  1  0.16666666  0.24900305  0.83333331  1
  N  N13  1  0.49879146  0.24797153  0.50199858  1
  N  N14  1  0.33443368  -0.00000000  0.16642536  1
  N  N15  1  0.16666664  0.75099694  0.83333331  1
  N  N16  1  0.49879146  0.75202840  0.50199858  1
  N  N17  1  0.33055881  0.49999997  0.16534043  1
  N  N18  1  0.83454182  0.24797153  0.16466805  1
  N  N19  1  0.66666669  -0.00000000  0.83333331  1
  N  N20  1  0.99889963  -0.00000000  0.50024130  1
  N  N21  1  0.83454182  0.75202840  0.16466805  1
  N  N22  1  0.66666669  0.49999997  0.83333331  1
  N  N23  1  0.00277450  0.49999997  0.50132623  1
