# generated using pymatgen
data_TaTi3N4
_symmetry_space_group_name_H-M   'P 1'
_cell_length_a   5.26579049
_cell_length_b   6.07257552
_cell_length_c   7.44121298
_cell_angle_alpha   90.00000000
_cell_angle_beta   90.08914213
_cell_angle_gamma   90.00000000
_symmetry_Int_Tables_number   1
_chemical_formula_structural   TaTi3N4
_chemical_formula_sum   'Ta3 Ti9 N12'
_cell_volume   237.94671279
_cell_formula_units_Z   3
loop_
 _symmetry_equiv_pos_site_id
 _symmetry_equiv_pos_as_xyz
  1  'x, y, z'
loop_
 _atom_site_type_symbol
 _atom_site_label
 _atom_site_symmetry_multiplicity
 _atom_site_fract_x
 _atom_site_fract_y
 _atom_site_fract_z
 _atom_site_occupancy
  Ti  Ti0  1  0.50056821  0.24760089  0.00226547  1
  Ti  Ti1  1  0.16262556  0.75617987  0.32939837  1
  Ti  Ti2  1  0.50056821  0.75239910  0.00226547  1
  Ti  Ti3  1  0.99542187  0.00000000  0.00380554  1
  Ti  Ti4  1  0.83735360  0.75182824  0.66816107  1
  Ti  Ti5  1  0.00121615  0.49999997  0.99633663  1
  Ti  Ti6  1  0.16262556  0.24382006  0.32939837  1
  Ti  Ti7  1  0.83735360  0.24817169  0.66816107  1
  Ti  Ti8  1  0.67245470  0.00000000  0.33195564  1
  Ta  Ta9  1  0.33081372  0.00000000  0.66568121  1
  Ta  Ta10  1  0.32906772  0.49999997  0.66943060  1
  Ta  Ta11  1  0.67058067  0.49999997  0.33273317  1
  N  N12  1  0.16428732  0.24731524  0.83895665  1
  N  N13  1  0.50147664  0.24758552  0.49762261  1
  N  N14  1  0.33526911  0.00000000  0.16688602  1
  N  N15  1  0.16428730  0.75268475  0.83895665  1
  N  N16  1  0.50147664  0.75241441  0.49762261  1
  N  N17  1  0.33037777  0.49999997  0.16654230  1
  N  N18  1  0.83400863  0.24938607  0.16403990  1
  N  N19  1  0.66804013  0.00000000  0.83398597  1
  N  N20  1  0.99548800  0.00000000  0.49847076  1
  N  N21  1  0.83400863  0.75061386  0.16403990  1
  N  N22  1  0.66806676  0.49999997  0.83417465  1
  N  N23  1  0.00256314  0.49999997  0.49910910  1
