# generated using pymatgen
data_HfTi3N4
_symmetry_space_group_name_H-M   'P 1'
_cell_length_a   5.32622098
_cell_length_b   6.11688885
_cell_length_c   7.50111395
_cell_angle_alpha   90.00000000
_cell_angle_beta   89.85758767
_cell_angle_gamma   90.00000000
_symmetry_Int_Tables_number   1
_chemical_formula_structural   HfTi3N4
_chemical_formula_sum   'Hf3 Ti9 N12'
_cell_volume   244.38480044
_cell_formula_units_Z   3
loop_
 _symmetry_equiv_pos_site_id
 _symmetry_equiv_pos_as_xyz
  1  'x, y, z'
loop_
 _atom_site_type_symbol
 _atom_site_label
 _atom_site_symmetry_multiplicity
 _atom_site_fract_x
 _atom_site_fract_y
 _atom_site_fract_z
 _atom_site_occupancy
  Ti  Ti0  1  0.50398778  0.24368518  0.00406091  1
  Ti  Ti1  1  0.16201003  0.75811540  0.32468371  1
  Ti  Ti2  1  0.50398778  0.75631481  0.00406091  1
  Ti  Ti3  1  0.99410742  0.00000000  0.00127942  1
  Ti  Ti4  1  0.83438279  0.75517992  0.67095120  1
  Ti  Ti5  1  0.99923771  0.49999997  0.00047261  1
  Ti  Ti6  1  0.16201003  0.24188453  0.32468371  1
  Ti  Ti7  1  0.83438279  0.24482001  0.67095120  1
  Ti  Ti8  1  0.67412433  0.00000000  0.33170210  1
  Hf  Hf9  1  0.33172484  0.00000000  0.66740338  1
  Hf  Hf10  1  0.33142277  0.49999997  0.66959513  1
  Hf  Hf11  1  0.66922275  0.49999997  0.33005294  1
  N  N12  1  0.16249286  0.25073482  0.84022779  1
  N  N13  1  0.50149136  0.24705136  0.49673385  1
  N  N14  1  0.33392505  0.00000000  0.16546549  1
  N  N15  1  0.16249284  0.74926517  0.84022779  1
  N  N16  1  0.50149136  0.75294857  0.49673385  1
  N  N17  1  0.32865224  0.49999997  0.16358222  1
  N  N18  1  0.83556393  0.24614086  0.16309955  1
  N  N19  1  0.66999655  0.00000000  0.83653751  1
  N  N20  1  0.99590145  0.00000000  0.49782761  1
  N  N21  1  0.83556393  0.75385907  0.16309955  1
  N  N22  1  0.67144036  0.49999997  0.83691804  1
  N  N23  1  0.00038671  0.49999997  0.49964926  1
