# generated using pymatgen
data_HfTi11N12
_symmetry_space_group_name_H-M   'P 1'
_cell_length_a   5.25817284
_cell_length_b   6.03096479
_cell_length_c   7.40907033
_cell_angle_alpha   90.00000000
_cell_angle_beta   89.81711877
_cell_angle_gamma   90.00000000
_symmetry_Int_Tables_number   1
_chemical_formula_structural   HfTi11N12
_chemical_formula_sum   'Hf1 Ti11 N12'
_cell_volume   234.95416909
_cell_formula_units_Z   1
loop_
 _symmetry_equiv_pos_site_id
 _symmetry_equiv_pos_as_xyz
  1  'x, y, z'
loop_
 _atom_site_type_symbol
 _atom_site_label
 _atom_site_symmetry_multiplicity
 _atom_site_fract_x
 _atom_site_fract_y
 _atom_site_fract_z
 _atom_site_occupancy
  Ti  Ti0  1  0.49700682  0.24581732  0.99573595  1
  Ti  Ti1  1  0.33171802  0.00000000  0.66718457  1
  Ti  Ti2  1  0.16666666  0.75721402  0.33333331  1
  Ti  Ti3  1  0.49700682  0.75418267  0.99573595  1
  Ti  Ti4  1  0.32903748  0.49999997  0.66938337  1
  Ti  Ti5  1  0.00161529  0.00000000  0.99948212  1
  Ti  Ti6  1  0.83632649  0.75418261  0.67093074  1
  Ti  Ti7  1  0.00429583  0.49999997  0.99728326  1
  Ti  Ti8  1  0.16666666  0.24278591  0.33333331  1
  Ti  Ti9  1  0.83632649  0.24581732  0.67093074  1
  Ti  Ti10  1  0.66666663  0.00000000  0.33333331  1
  Hf  Hf11  1  0.66666663  0.49999997  0.33333331  1
  N  N12  1  0.16666666  0.25060961  0.83333331  1
  N  N13  1  0.49758598  0.24593694  0.50382724  1
  N  N14  1  0.33385655  0.00000000  0.16584308  1
  N  N15  1  0.16666664  0.74939038  0.83333331  1
  N  N16  1  0.49758598  0.75406299  0.50382724  1
  N  N17  1  0.32821388  0.49999997  0.16380679  1
  N  N18  1  0.83574730  0.24593694  0.16283939  1
  N  N19  1  0.66666669  0.00000000  0.83333331  1
  N  N20  1  0.99947676  0.00000000  0.50082358  1
  N  N21  1  0.83574730  0.75406299  0.16283939  1
  N  N22  1  0.66666669  0.49999997  0.83333331  1
  N  N23  1  0.00511943  0.49999997  0.50285987  1
