# generated using pymatgen
data_Ta3TiN4
_symmetry_space_group_name_H-M   'P 1'
_cell_length_a   5.39781908
_cell_length_b   6.14850116
_cell_length_c   7.61324502
_cell_angle_alpha   89.99348779
_cell_angle_beta   88.63342527
_cell_angle_gamma   90.15179357
_symmetry_Int_Tables_number   1
_chemical_formula_structural   Ta3TiN4
_chemical_formula_sum   'Ta9 Ti3 N12'
_cell_volume   252.59940129
_cell_formula_units_Z   3
loop_
 _symmetry_equiv_pos_site_id
 _symmetry_equiv_pos_as_xyz
  1  'x, y, z'
loop_
 _atom_site_type_symbol
 _atom_site_label
 _atom_site_symmetry_multiplicity
 _atom_site_fract_x
 _atom_site_fract_y
 _atom_site_fract_z
 _atom_site_occupancy
  Ta  Ta0  1  0.51677262  0.25511316  0.01016493  1
  Ta  Ta1  1  0.31593237  0.99778520  0.65658786  1
  Ta  Ta2  1  0.17647472  0.75339472  0.34722905  1
  Ta  Ta3  1  0.52826316  0.74683420  0.00494924  1
  Ta  Ta4  1  0.31807389  0.50207920  0.65550473  1
  Ta  Ta5  1  0.98114086  0.99336966  0.99454375  1
  Ta  Ta6  1  0.85168741  0.75480466  0.67151255  1
  Ta  Ta7  1  0.65690605  0.49054069  0.32557427  1
  Ta  Ta8  1  0.97418482  0.50128645  0.99691501  1
  N  N9  1  0.17260142  0.25103649  0.83920705  1
  N  N10  1  0.50381276  0.24836511  0.50466753  1
  N  N11  1  0.32622727  0.99807265  0.16223076  1
  N  N12  1  0.18797554  0.74656105  0.84680194  1
  N  N13  1  0.52361509  0.75351389  0.50105444  1
  N  N14  1  0.31491644  0.50158024  0.16294250  1
  N  N15  1  0.85442134  0.24366078  0.17321320  1
  N  N16  1  0.64957213  0.00692576  0.82313678  1
  N  N17  1  0.98293011  0.00700720  0.49100050  1
  N  N18  1  0.84529021  0.75534811  0.18546895  1
  N  N19  1  0.65472003  0.49408116  0.81569804  1
  N  N20  1  0.98243586  0.49303371  0.49413226  1
  Ti  Ti21  1  0.17664093  0.24563461  0.34274591  1
  Ti  Ti22  1  0.84956652  0.24317818  0.66675301  1
  Ti  Ti23  1  0.65583816  0.01679266  0.32796551  1
