# generated using pymatgen
data_Ti11WN12
_symmetry_space_group_name_H-M   'P 1'
_cell_length_a   5.21438872
_cell_length_b   6.01295488
_cell_length_c   7.37477646
_cell_angle_alpha   90.00000000
_cell_angle_beta   89.93255821
_cell_angle_gamma   90.00000000
_symmetry_Int_Tables_number   1
_chemical_formula_structural   Ti11WN12
_chemical_formula_sum   'Ti11 W1 N12'
_cell_volume   231.22772617
_cell_formula_units_Z   1
loop_
 _symmetry_equiv_pos_site_id
 _symmetry_equiv_pos_as_xyz
  1  'x, y, z'
loop_
 _atom_site_type_symbol
 _atom_site_label
 _atom_site_symmetry_multiplicity
 _atom_site_fract_x
 _atom_site_fract_y
 _atom_site_fract_z
 _atom_site_occupancy
  Ti  Ti0  1  0.49999599  0.24850241  0.00051027  1
  Ti  Ti1  1  0.32952282  -0.00000000  0.66653668  1
  Ti  Ti2  1  0.16666666  0.75014340  0.33333331  1
  Ti  Ti3  1  0.49999599  0.75149758  0.00051027  1
  Ti  Ti4  1  0.33759505  0.49999997  0.66861137  1
  Ti  Ti5  1  0.00381049  -0.00000000  0.00013001  1
  Ti  Ti6  1  0.83333732  0.75149752  0.66615642  1
  Ti  Ti7  1  0.99573826  0.49999997  0.99805526  1
  Ti  Ti8  1  0.16666666  0.24985653  0.33333331  1
  Ti  Ti9  1  0.83333732  0.24850241  0.66615642  1
  Ti  Ti10  1  0.66666663  -0.00000000  0.33333331  1
  W  W11  1  0.66666663  0.49999997  0.33333331  1
  N  N12  1  0.16666666  0.24921972  0.83333331  1
  N  N13  1  0.49785627  0.24651987  0.50171565  1
  N  N14  1  0.33489797  -0.00000000  0.16814199  1
  N  N15  1  0.16666664  0.75078027  0.83333331  1
  N  N16  1  0.49785627  0.75348006  0.50171565  1
  N  N17  1  0.32802722  0.49999997  0.16439253  1
  N  N18  1  0.83547701  0.24651987  0.16495098  1
  N  N19  1  0.66666669  -0.00000000  0.83333331  1
  N  N20  1  0.99843534  -0.00000000  0.49852467  1
  N  N21  1  0.83547701  0.75348006  0.16495098  1
  N  N22  1  0.66666669  0.49999997  0.83333331  1
  N  N23  1  0.00530609  0.49999997  0.50227413  1
