# generated using pymatgen
data_TiMo3N4
_symmetry_space_group_name_H-M   'P 1'
_cell_length_a   5.31035157
_cell_length_b   6.08470270
_cell_length_c   7.47609365
_cell_angle_alpha   90.80475987
_cell_angle_beta   89.89391441
_cell_angle_gamma   90.88474735
_symmetry_Int_Tables_number   1
_chemical_formula_structural   TiMo3N4
_chemical_formula_sum   'Ti3 Mo9 N12'
_cell_volume   241.51392110
_cell_formula_units_Z   3
loop_
 _symmetry_equiv_pos_site_id
 _symmetry_equiv_pos_as_xyz
  1  'x, y, z'
loop_
 _atom_site_type_symbol
 _atom_site_label
 _atom_site_symmetry_multiplicity
 _atom_site_fract_x
 _atom_site_fract_y
 _atom_site_fract_z
 _atom_site_occupancy
  Mo  Mo0  1  0.51444441  0.28537381  0.01167969  1
  Mo  Mo1  1  0.30769206  0.97086911  0.66509130  1
  Mo  Mo2  1  0.17077272  0.76404472  0.36936222  1
  Mo  Mo3  1  0.53666808  0.73933671  0.00588410  1
  Mo  Mo4  1  0.33368394  0.50287090  0.63164550  1
  Mo  Mo5  1  0.98644754  0.96527910  0.98543604  1
  Mo  Mo6  1  0.86778547  0.77574905  0.66791136  1
  Mo  Mo7  1  0.64468012  0.46250819  0.32662544  1
  Mo  Mo8  1  0.95852532  0.50880532  0.00709994  1
  N  N9  1  0.16316520  0.24798163  0.83385937  1
  N  N10  1  0.49445280  0.22409491  0.51305082  1
  N  N11  1  0.33503116  0.99944369  0.16157592  1
  N  N12  1  0.18803024  0.70839035  0.84222306  1
  N  N13  1  0.53488800  0.75524686  0.49723973  1
  N  N14  1  0.30878009  0.52190355  0.16618357  1
  N  N15  1  0.85403936  0.23438745  0.16062453  1
  N  N16  1  0.65007809  0.00804466  0.83204177  1
  N  N17  1  0.99390377  0.02872755  0.49543359  1
  N  N18  1  0.84363145  0.74915953  0.19375074  1
  N  N19  1  0.65886449  0.50938911  0.81148603  1
  N  N20  1  0.97570761  0.50176682  0.49376132  1
  Ti  Ti21  1  0.19533669  0.26646941  0.33618098  1
  Ti  Ti22  1  0.82549466  0.25437510  0.66610576  1
  Ti  Ti23  1  0.65789643  0.01578197  0.32574699  1
