# generated using pymatgen
data_Ti11MoN12
_symmetry_space_group_name_H-M   'P 1'
_cell_length_a   5.21322676
_cell_length_b   6.01029825
_cell_length_c   7.37397853
_cell_angle_alpha   90.00000000
_cell_angle_beta   89.83312466
_cell_angle_gamma   90.00000000
_symmetry_Int_Tables_number   1
_chemical_formula_structural   Ti11MoN12
_chemical_formula_sum   'Ti11 Mo1 N12'
_cell_volume   231.04824072
_cell_formula_units_Z   1
loop_
 _symmetry_equiv_pos_site_id
 _symmetry_equiv_pos_as_xyz
  1  'x, y, z'
loop_
 _atom_site_type_symbol
 _atom_site_label
 _atom_site_symmetry_multiplicity
 _atom_site_fract_x
 _atom_site_fract_y
 _atom_site_fract_z
 _atom_site_occupancy
  Ti  Ti0  1  0.50132119  0.24951656  0.00214293  1
  Ti  Ti1  1  0.32639106  -0.00000000  0.66735638  1
  Ti  Ti2  1  0.16666666  0.74771093  0.33333331  1
  Ti  Ti3  1  0.50132119  0.75048343  0.00214293  1
  Ti  Ti4  1  0.34336735  0.49999997  0.66928663  1
  Ti  Ti5  1  0.00694225  -0.00000000  -0.00068969  1
  Ti  Ti6  1  0.83201212  0.75048337  0.66452376  1
  Ti  Ti7  1  0.98996596  0.49999997  0.99738000  1
  Ti  Ti8  1  0.16666666  0.25228900  0.33333331  1
  Ti  Ti9  1  0.83201212  0.24951656  0.66452376  1
  Ti  Ti10  1  0.66666663  -0.00000000  0.33333331  1
  Mo  Mo11  1  0.66666663  0.49999997  0.33333331  1
  N  N12  1  0.16666666  0.24983573  0.83333331  1
  N  N13  1  0.49597513  0.24402657  0.50282523  1
  N  N14  1  0.33481232  -0.00000000  0.16867991  1
  N  N15  1  0.16666664  0.75016426  0.83333331  1
  N  N16  1  0.49597513  0.75597336  0.50282523  1
  N  N17  1  0.32432982  0.49999997  0.16259201  1
  N  N18  1  0.83735815  0.24402657  0.16384140  1
  N  N19  1  0.66666669  -0.00000000  0.83333331  1
  N  N20  1  0.99852099  -0.00000000  0.49798675  1
  N  N21  1  0.83735815  0.75597336  0.16384140  1
  N  N22  1  0.66666669  0.49999997  0.83333331  1
  N  N23  1  0.00900349  0.49999997  0.50407465  1
