# generated using pymatgen
data_ZrTi3N4
_symmetry_space_group_name_H-M   'P 1'
_cell_length_a   5.34374344
_cell_length_b   6.13197187
_cell_length_c   7.53108630
_cell_angle_alpha   90.00000000
_cell_angle_beta   89.88997085
_cell_angle_gamma   90.00000000
_symmetry_Int_Tables_number   1
_chemical_formula_structural   ZrTi3N4
_chemical_formula_sum   'Zr3 Ti9 N12'
_cell_volume   246.77580434
_cell_formula_units_Z   3
loop_
 _symmetry_equiv_pos_site_id
 _symmetry_equiv_pos_as_xyz
  1  'x, y, z'
loop_
 _atom_site_type_symbol
 _atom_site_label
 _atom_site_symmetry_multiplicity
 _atom_site_fract_x
 _atom_site_fract_y
 _atom_site_fract_z
 _atom_site_occupancy
  Ti  Ti0  1  0.50298414  0.24411511  0.00400137  1
  Ti  Ti1  1  0.16322828  0.75724853  0.32530208  1
  Ti  Ti2  1  0.50298414  0.75588488  0.00400137  1
  Ti  Ti3  1  0.99491398  0.00000000  0.00149822  1
  Ti  Ti4  1  0.83396342  0.75411814  0.67039683  1
  Ti  Ti5  1  0.00000439  0.49999997  0.99915488  1
  Ti  Ti6  1  0.16322828  0.24275140  0.32530208  1
  Ti  Ti7  1  0.83396342  0.24588179  0.67039683  1
  Ti  Ti8  1  0.67221030  0.00000000  0.33299313  1
  Zr  Zr9  1  0.33037869  0.00000000  0.66848908  1
  Zr  Zr10  1  0.33328826  0.49999997  0.66950197  1
  Zr  Zr11  1  0.66931309  0.49999997  0.32872165  1
  N  N12  1  0.15838125  0.25096204  0.84408501  1
  N  N13  1  0.50369948  0.24391561  0.49435797  1
  N  N14  1  0.33401167  0.00000000  0.16553768  1
  N  N15  1  0.15838123  0.74903795  0.84408501  1
  N  N16  1  0.50369948  0.75608432  0.49435797  1
  N  N17  1  0.32462112  0.49999997  0.16200647  1
  N  N18  1  0.83744722  0.24282050  0.16170239  1
  N  N19  1  0.67373257  0.00000000  0.83801427  1
  N  N20  1  0.99214668  0.00000000  0.49575245  1
  N  N21  1  0.83744722  0.75717943  0.16170239  1
  N  N22  1  0.67525644  0.49999997  0.83891097  1
  N  N23  1  0.00071488  0.49999997  0.49972768  1
