# generated using pymatgen
data_Zr3TiN4
_symmetry_space_group_name_H-M   'P 1'
_cell_length_a   5.55937763
_cell_length_b   6.35833617
_cell_length_c   7.82529764
_cell_angle_alpha   89.99299065
_cell_angle_beta   89.92556347
_cell_angle_gamma   89.99228990
_symmetry_Int_Tables_number   1
_chemical_formula_structural   Zr3TiN4
_chemical_formula_sum   'Zr9 Ti3 N12'
_cell_volume   276.61144943
_cell_formula_units_Z   3
loop_
 _symmetry_equiv_pos_site_id
 _symmetry_equiv_pos_as_xyz
  1  'x, y, z'
loop_
 _atom_site_type_symbol
 _atom_site_label
 _atom_site_symmetry_multiplicity
 _atom_site_fract_x
 _atom_site_fract_y
 _atom_site_fract_z
 _atom_site_occupancy
  Zr  Zr0  1  0.50123396  0.24831909  0.00314454  1
  Zr  Zr1  1  0.33400087  0.00453583  0.66178399  1
  Zr  Zr2  1  0.16577844  0.75429057  0.33388985  1
  Zr  Zr3  1  0.50093070  0.75218635  0.00275105  1
  Zr  Zr4  1  0.33251527  0.49482900  0.66312986  1
  Zr  Zr5  1  0.99821539  0.00270177  0.00141315  1
  Zr  Zr6  1  0.83297383  0.75245895  0.66355600  1
  Zr  Zr7  1  0.66803754  0.49391424  0.33605038  1
  Zr  Zr8  1  0.99960409  0.49698676  0.00067757  1
  N  N9  1  0.16149630  0.25043716  0.83035266  1
  N  N10  1  0.50378377  0.24405648  0.49534850  1
  N  N11  1  0.33601852  0.00525270  0.17534570  1
  N  N12  1  0.16719582  0.74895966  0.83260859  1
  N  N13  1  0.50396377  0.75516051  0.49542698  1
  N  N14  1  0.32920975  0.49577977  0.17221062  1
  N  N15  1  0.83605107  0.24397193  0.17432892  1
  N  N16  1  0.66975470  0.00463342  0.82842057  1
  N  N17  1  0.99300835  0.01181434  0.49640277  1
  N  N18  1  0.82957936  0.75517711  0.17173149  1
  N  N19  1  0.67001809  0.49601283  0.82861277  1
  N  N20  1  -0.00004998  0.48889942  0.49930835  1
  Ti  Ti21  1  0.15779758  0.24591172  0.33325710  1
  Ti  Ti22  1  0.83857147  0.24695538  0.66282600  1
  Ti  Ti23  1  0.67031099  0.00675455  0.33742234  1
