# generated using pymatgen
data_YTi11N12
_symmetry_space_group_name_H-M   'P 1'
_cell_length_a   5.28767368
_cell_length_b   6.08333279
_cell_length_c   7.44265055
_cell_angle_alpha   90.00000000
_cell_angle_beta   90.00190779
_cell_angle_gamma   90.00000000
_symmetry_Int_Tables_number   1
_chemical_formula_structural   YTi11N12
_chemical_formula_sum   'Y1 Ti11 N12'
_cell_volume   239.40534877
_cell_formula_units_Z   1
loop_
 _symmetry_equiv_pos_site_id
 _symmetry_equiv_pos_as_xyz
  1  'x, y, z'
loop_
 _atom_site_type_symbol
 _atom_site_label
 _atom_site_symmetry_multiplicity
 _atom_site_fract_x
 _atom_site_fract_y
 _atom_site_fract_z
 _atom_site_occupancy
  Ti  Ti0  1  0.49601433  0.24541702  0.99515447  1
  Ti  Ti1  1  0.32817700  -0.00000000  0.66865258  1
  Ti  Ti2  1  0.16666666  0.75846580  0.33333331  1
  Ti  Ti3  1  0.49601433  0.75458297  0.99515447  1
  Ti  Ti4  1  0.33128411  0.49999997  0.67235822  1
  Ti  Ti5  1  0.00515631  -0.00000000  0.99801411  1
  Ti  Ti6  1  0.83731898  0.75458291  0.67151222  1
  Ti  Ti7  1  0.00204920  0.49999997  0.99430841  1
  Ti  Ti8  1  0.16666666  0.24153413  0.33333331  1
  Ti  Ti9  1  0.83731898  0.24541702  0.67151222  1
  Ti  Ti10  1  0.66666663  -0.00000000  0.33333331  1
  Y  Y11  1  0.66666663  0.49999997  0.33333331  1
  N  N12  1  0.16666666  0.25183143  0.83333331  1
  N  N13  1  0.49196406  0.23714124  0.50978486  1
  N  N14  1  0.33430329  -0.00000000  0.16615923  1
  N  N15  1  0.16666664  0.74816856  0.83333331  1
  N  N16  1  0.49196406  0.76285869  0.50978486  1
  N  N17  1  0.31612334  0.49999997  0.15795756  1
  N  N18  1  0.84136922  0.23714124  0.15688177  1
  N  N19  1  0.66666669  -0.00000000  0.83333331  1
  N  N20  1  0.99903002  -0.00000000  0.50050743  1
  N  N21  1  0.84136922  0.76285869  0.15688177  1
  N  N22  1  0.66666669  0.49999997  0.83333331  1
  N  N23  1  0.01720997  0.49999997  0.50870910  1
