# generated using pymatgen
data_Ti3MoN4
_symmetry_space_group_name_H-M   'P 1'
_cell_length_a   5.24222057
_cell_length_b   6.00371039
_cell_length_c   7.42568858
_cell_angle_alpha   90.00000000
_cell_angle_beta   90.21428436
_cell_angle_gamma   90.00000000
_symmetry_Int_Tables_number   1
_chemical_formula_structural   Ti3MoN4
_chemical_formula_sum   'Ti9 Mo3 N12'
_cell_volume   233.70538485
_cell_formula_units_Z   3
loop_
 _symmetry_equiv_pos_site_id
 _symmetry_equiv_pos_as_xyz
  1  'x, y, z'
loop_
 _atom_site_type_symbol
 _atom_site_label
 _atom_site_symmetry_multiplicity
 _atom_site_fract_x
 _atom_site_fract_y
 _atom_site_fract_z
 _atom_site_occupancy
  Ti  Ti0  1  0.50049525  0.25645833  0.99876859  1
  Ti  Ti1  1  0.16601497  0.75056455  0.34177418  1
  Ti  Ti2  1  0.50049525  0.74354166  0.99876859  1
  Ti  Ti3  1  0.00118231  0.00000000  0.00270608  1
  Ti  Ti4  1  0.84999014  0.75077327  0.66735421  1
  Ti  Ti5  1  0.98973743  0.49999997  0.01257171  1
  Ti  Ti6  1  0.16601497  0.24943538  0.34177418  1
  Ti  Ti7  1  0.84999014  0.24922666  0.66735421  1
  Ti  Ti8  1  0.66702959  0.00000000  0.33761888  1
  Mo  Mo9  1  0.31392888  0.00000000  0.65651548  1
  Mo  Mo10  1  0.33294212  0.49999997  0.67911461  1
  Mo  Mo11  1  0.66706761  0.49999997  0.30232852  1
  N  N12  1  0.16264895  0.24762956  0.84388600  1
  N  N13  1  0.50733881  0.25624115  0.49674633  1
  N  N14  1  0.33942380  0.00000000  0.16983838  1
  N  N15  1  0.16264893  0.75237043  0.84388600  1
  N  N16  1  0.50733881  0.74375878  0.49674633  1
  N  N17  1  0.31459502  0.49999997  0.16491326  1
  N  N18  1  0.83895102  0.23622380  0.16190100  1
  N  N19  1  0.66363909  0.00000000  0.82977556  1
  N  N20  1  0.98507548  0.00000000  0.49152078  1
  N  N21  1  0.83895102  0.76377613  0.16190100  1
  N  N22  1  0.68136452  0.49999997  0.83442888  1
  N  N23  1  0.99313559  0.49999997  0.49780701  1
