# generated using pymatgen
data_Ti11NbN12
_symmetry_space_group_name_H-M   'P 1'
_cell_length_a   5.23088763
_cell_length_b   6.01480455
_cell_length_c   7.39156651
_cell_angle_alpha   90.00000000
_cell_angle_beta   89.88883472
_cell_angle_gamma   90.00000000
_symmetry_Int_Tables_number   1
_chemical_formula_structural   Ti11NbN12
_chemical_formula_sum   'Ti11 Nb1 N12'
_cell_volume   232.55869513
_cell_formula_units_Z   1
loop_
 _symmetry_equiv_pos_site_id
 _symmetry_equiv_pos_as_xyz
  1  'x, y, z'
loop_
 _atom_site_type_symbol
 _atom_site_label
 _atom_site_symmetry_multiplicity
 _atom_site_fract_x
 _atom_site_fract_y
 _atom_site_fract_z
 _atom_site_occupancy
  Ti  Ti0  1  0.49964350  0.24946267  0.99925267  1
  Ti  Ti1  1  0.33205642  0.00000000  0.66612148  1
  Ti  Ti2  1  0.16666666  0.75103585  0.33333331  1
  Ti  Ti3  1  0.49964350  0.75053732  0.99925267  1
  Ti  Ti4  1  0.33374117  0.49999997  0.66820809  1
  Ti  Ti5  1  0.00127689  0.00000000  0.00054521  1
  Ti  Ti6  1  0.83368981  0.75053726  0.66741402  1
  Ti  Ti7  1  0.99959214  0.49999997  0.99845854  1
  Ti  Ti8  1  0.16666666  0.24896408  0.33333331  1
  Ti  Ti9  1  0.83368981  0.24946267  0.66741402  1
  Ti  Ti10  1  0.66666663  0.00000000  0.33333331  1
  Nb  Nb11  1  0.66666663  0.49999997  0.33333331  1
  N  N12  1  0.16666666  0.24936819  0.83333331  1
  N  N13  1  0.49710394  0.24536286  0.50334043  1
  N  N14  1  0.33435509  0.00000000  0.16690354  1
  N  N15  1  0.16666664  0.75063180  0.83333331  1
  N  N16  1  0.49710394  0.75463707  0.50334043  1
  N  N17  1  0.32682775  0.49999997  0.16359220  1
  N  N18  1  0.83622934  0.24536286  0.16332620  1
  N  N19  1  0.66666669  0.00000000  0.83333331  1
  N  N20  1  0.99897822  0.00000000  0.49976312  1
  N  N21  1  0.83622934  0.75463707  0.16332620  1
  N  N22  1  0.66666669  0.49999997  0.83333331  1
  N  N23  1  0.00650556  0.49999997  0.50307446  1
