# generated using pymatgen
data_Ti11OsN12
_symmetry_space_group_name_H-M   'P 1'
_cell_length_a   5.21084799
_cell_length_b   6.00647737
_cell_length_c   7.38691005
_cell_angle_alpha   90.00000000
_cell_angle_beta   90.17728491
_cell_angle_gamma   90.00000000
_symmetry_Int_Tables_number   1
_chemical_formula_structural   Ti11OsN12
_chemical_formula_sum   'Ti11 Os1 N12'
_cell_volume   231.20061294
_cell_formula_units_Z   1
loop_
 _symmetry_equiv_pos_site_id
 _symmetry_equiv_pos_as_xyz
  1  'x, y, z'
loop_
 _atom_site_type_symbol
 _atom_site_label
 _atom_site_symmetry_multiplicity
 _atom_site_fract_x
 _atom_site_fract_y
 _atom_site_fract_z
 _atom_site_occupancy
  Ti  Ti0  1  0.49807069  0.24543750  0.00275378  1
  Ti  Ti1  1  0.31713883  0.00000000  0.67321148  1
  Ti  Ti2  1  0.16666666  0.75147264  0.33333331  1
  Ti  Ti3  1  0.49807069  0.75456249  0.00275378  1
  Ti  Ti4  1  0.34469146  0.49999997  0.67574167  1
  Ti  Ti5  1  0.01619448  0.00000000  0.99345521  1
  Ti  Ti6  1  0.83526262  0.75456243  0.66391291  1
  Ti  Ti7  1  0.98864185  0.49999997  0.99092496  1
  Ti  Ti8  1  0.16666666  0.24852729  0.33333331  1
  Ti  Ti9  1  0.83526262  0.24543750  0.66391291  1
  Ti  Ti10  1  0.66666663  0.00000000  0.33333331  1
  Os  Os11  1  0.66666663  0.49999997  0.33333331  1
  N  N12  1  0.16666666  0.25290180  0.83333331  1
  N  N13  1  0.49643706  0.24628160  0.50240963  1
  N  N14  1  0.33420210  0.00000000  0.16998288  1
  N  N15  1  0.16666664  0.74709819  0.83333331  1
  N  N16  1  0.49643706  0.75371833  0.50240963  1
  N  N17  1  0.32684340  0.49999997  0.16415804  1
  N  N18  1  0.83689622  0.24628160  0.16425700  1
  N  N19  1  0.66666669  0.00000000  0.83333331  1
  N  N20  1  0.99913121  0.00000000  0.49668378  1
  N  N21  1  0.83689622  0.75371833  0.16425700  1
  N  N22  1  0.66666669  0.49999997  0.83333331  1
  N  N23  1  0.00648991  0.49999997  0.50250862  1
