# generated using pymatgen
data_Ti3OsN4
_symmetry_space_group_name_H-M   'P 1'
_cell_length_a   5.19512228
_cell_length_b   6.09996197
_cell_length_c   7.40188754
_cell_angle_alpha   90.00000000
_cell_angle_beta   89.55690275
_cell_angle_gamma   90.00000000
_symmetry_Int_Tables_number   1
_chemical_formula_structural   Ti3OsN4
_chemical_formula_sum   'Ti9 Os3 N12'
_cell_volume   234.55915966
_cell_formula_units_Z   3
loop_
 _symmetry_equiv_pos_site_id
 _symmetry_equiv_pos_as_xyz
  1  'x, y, z'
loop_
 _atom_site_type_symbol
 _atom_site_label
 _atom_site_symmetry_multiplicity
 _atom_site_fract_x
 _atom_site_fract_y
 _atom_site_fract_z
 _atom_site_occupancy
  Ti  Ti0  1  0.51162635  0.24736724  0.01338992  1
  Ti  Ti1  1  0.15132654  0.75342074  0.34078739  1
  Ti  Ti2  1  0.51162635  0.75263275  0.01338992  1
  Ti  Ti3  1  0.03922180  0.00000000  0.98674633  1
  Ti  Ti4  1  0.78856609  0.74965251  0.66419027  1
  Ti  Ti5  1  0.98923769  0.49999997  0.01348475  1
  Ti  Ti6  1  0.15132654  0.24657919  0.34078739  1
  Ti  Ti7  1  0.78856609  0.25034742  0.66419027  1
  Ti  Ti8  1  0.66501081  0.00000000  0.32188948  1
  Os  Os9  1  0.33261802  0.00000000  0.67111911  1
  Os  Os10  1  0.35108948  0.49999997  0.67121602  1
  Os  Os11  1  0.69094204  0.49999997  0.30426878  1
  N  N12  1  0.17239719  0.25394538  0.82891713  1
  N  N13  1  0.50248892  0.26588830  0.48045453  1
  N  N14  1  0.32897034  0.00000000  0.17255324  1
  N  N15  1  0.17239717  0.74605461  0.82891713  1
  N  N16  1  0.50248892  0.73411163  0.48045453  1
  N  N17  1  0.32942410  0.49999997  0.17000310  1
  N  N18  1  0.85013012  0.23245482  0.15862331  1
  N  N19  1  0.67123090  0.00000000  0.84226735  1
  N  N20  1  0.98660419  0.00000000  0.51216581  1
  N  N21  1  0.85013012  0.76754511  0.15862331  1
  N  N22  1  0.67290955  0.49999997  0.84661072  1
  N  N23  1  0.98967039  0.49999997  0.51494998  1
