# generated using pymatgen
data_Ti3NbN4
_symmetry_space_group_name_H-M   'P 1'
_cell_length_a   5.26606398
_cell_length_b   6.06426273
_cell_length_c   7.44033426
_cell_angle_alpha   90.00000000
_cell_angle_beta   90.10154826
_cell_angle_gamma   90.00000000
_symmetry_Int_Tables_number   1
_chemical_formula_structural   Ti3NbN4
_chemical_formula_sum   'Ti9 Nb3 N12'
_cell_volume   237.60517993
_cell_formula_units_Z   3
loop_
 _symmetry_equiv_pos_site_id
 _symmetry_equiv_pos_as_xyz
  1  'x, y, z'
loop_
 _atom_site_type_symbol
 _atom_site_label
 _atom_site_symmetry_multiplicity
 _atom_site_fract_x
 _atom_site_fract_y
 _atom_site_fract_z
 _atom_site_occupancy
  Ti  Ti0  1  0.49999549  0.24801522  -0.00004663  1
  Ti  Ti1  1  0.16505214  0.75270564  0.33264040  1
  Ti  Ti2  1  0.49999549  0.75198477  -0.00004663  1
  Ti  Ti3  1  0.99869273  -0.00000000  0.00325316  1
  Ti  Ti4  1  0.83525263  0.75220606  0.66751581  1
  Ti  Ti5  1  0.99829551  0.49999997  0.99933873  1
  Ti  Ti6  1  0.16505214  0.24729429  0.33264040  1
  Ti  Ti7  1  0.83525263  0.24779387  0.66751581  1
  Ti  Ti8  1  0.67135863  -0.00000000  0.33063086  1
  Nb  Nb9  1  0.32859212  -0.00000000  0.66676679  1
  Nb  Nb10  1  0.33500952  0.49999997  0.66797999  1
  Nb  Nb11  1  0.66801501  0.49999997  0.33180664  1
  N  N12  1  0.16050203  0.24992375  0.84051709  1
  N  N13  1  0.50357737  0.24392644  0.49607340  1
  N  N14  1  0.33489134  -0.00000000  0.16731809  1
  N  N15  1  0.16050201  0.75007624  0.84051709  1
  N  N16  1  0.50357737  0.75607349  0.49607340  1
  N  N17  1  0.32684143  0.49999997  0.16405120  1
  N  N18  1  0.83574517  0.24618064  0.16353642  1
  N  N19  1  0.67167196  -0.00000000  0.83533889  1
  N  N20  1  0.99252361  -0.00000000  0.49629816  1
  N  N21  1  0.83574517  0.75381929  0.16353642  1
  N  N22  1  0.67260179  0.49999997  0.83617637  1
  N  N23  1  0.00125636  0.49999997  0.50056790  1
