# generated using pymatgen
data_Ti3ReN4
_symmetry_space_group_name_H-M   'P 1'
_cell_length_a   5.23657336
_cell_length_b   6.03814671
_cell_length_c   7.38764288
_cell_angle_alpha   90.00000000
_cell_angle_beta   90.51605688
_cell_angle_gamma   90.00000000
_symmetry_Int_Tables_number   1
_chemical_formula_structural   Ti3ReN4
_chemical_formula_sum   'Ti9 Re3 N12'
_cell_volume   233.58186948
_cell_formula_units_Z   3
loop_
 _symmetry_equiv_pos_site_id
 _symmetry_equiv_pos_as_xyz
  1  'x, y, z'
loop_
 _atom_site_type_symbol
 _atom_site_label
 _atom_site_symmetry_multiplicity
 _atom_site_fract_x
 _atom_site_fract_y
 _atom_site_fract_z
 _atom_site_occupancy
  Ti  Ti0  1  0.50741124  0.25371729  0.00864121  1
  Ti  Ti1  1  0.16006472  0.75292375  0.34738741  1
  Ti  Ti2  1  0.50741124  0.74628270  0.00864121  1
  Ti  Ti3  1  0.01702314  -0.00000000  -0.00367868  1
  Ti  Ti4  1  0.79650580  0.74951096  0.66632311  1
  Ti  Ti5  1  0.99103183  0.49999997  0.01269578  1
  Ti  Ti6  1  0.16006472  0.24707618  0.34738741  1
  Ti  Ti7  1  0.79650580  0.25048897  0.66632311  1
  Ti  Ti8  1  0.66623391  -0.00000000  0.32926708  1
  Re  Re9  1  0.34196970  -0.00000000  0.65323579  1
  Re  Re10  1  0.34753753  0.49999997  0.67345706  1
  Re  Re11  1  0.68753030  0.49999997  0.29424350  1
  N  N12  1  0.16800277  0.24621495  0.83207510  1
  N  N13  1  0.50695454  0.26894141  0.48188041  1
  N  N14  1  0.33417487  -0.00000000  0.17075132  1
  N  N15  1  0.16800275  0.75378504  0.83207510  1
  N  N16  1  0.50695454  0.73105852  0.48188041  1
  N  N17  1  0.32391005  0.49999997  0.16846990  1
  N  N18  1  0.84892436  0.23154372  0.16216702  1
  N  N19  1  0.66279710  -0.00000000  0.83985522  1
  N  N20  1  0.98447991  -0.00000000  0.50979967  1
  N  N21  1  0.84892436  0.76845621  0.16216702  1
  N  N22  1  0.67812259  0.49999997  0.84498348  1
  N  N23  1  0.98946191  0.49999997  0.50997114  1
