# generated using pymatgen
data_TiRe3N4
_symmetry_space_group_name_H-M   'P 1'
_cell_length_a   5.05379800
_cell_length_b   6.91804095
_cell_length_c   7.16186855
_cell_angle_alpha   94.69061319
_cell_angle_beta   90.29234927
_cell_angle_gamma   89.20688494
_symmetry_Int_Tables_number   1
_chemical_formula_structural   TiRe3N4
_chemical_formula_sum   'Ti3 Re9 N12'
_cell_volume   249.53146418
_cell_formula_units_Z   3
loop_
 _symmetry_equiv_pos_site_id
 _symmetry_equiv_pos_as_xyz
  1  'x, y, z'
loop_
 _atom_site_type_symbol
 _atom_site_label
 _atom_site_symmetry_multiplicity
 _atom_site_fract_x
 _atom_site_fract_y
 _atom_site_fract_z
 _atom_site_occupancy
  Re  Re0  1  0.50309575  0.28949359  0.99063809  1
  Re  Re1  1  0.25513497  0.96842946  0.71060720  1
  Re  Re2  1  0.17120414  0.76684263  0.37952522  1
  Re  Re3  1  0.50722400  0.77551118  0.02936894  1
  Re  Re4  1  0.33405947  0.47056520  0.67846277  1
  Re  Re5  1  0.02185179  0.92370165  0.05262713  1
  Re  Re6  1  0.75912223  0.83081021  0.70846081  1
  Re  Re7  1  0.68892064  0.45303852  0.31712224  1
  Re  Re8  1  0.99462550  0.44876439  0.00683828  1
  N  N9  1  0.16581142  0.25406002  0.81050656  1
  N  N10  1  0.50784660  0.25279771  0.47622832  1
  N  N11  1  0.38528154  0.05856511  0.12162908  1
  N  N12  1  0.19151527  0.72225339  0.84192933  1
  N  N13  1  0.53524432  0.68575841  0.48747426  1
  N  N14  1  0.34455112  0.54537527  0.16834287  1
  N  N15  1  0.85630613  0.20514312  0.11779740  1
  N  N16  1  0.61084850  0.09056545  0.78464619  1
  N  N17  1  0.97878459  0.01685405  0.50931052  1
  N  N18  1  0.84414039  0.70485239  0.18153362  1
  N  N19  1  0.68548562  0.56613528  0.82288702  1
  N  N20  1  0.03525734  0.48289413  0.47288997  1
  Ti  Ti21  1  0.17835492  0.22120191  0.32472629  1
  Ti  Ti22  1  0.80973842  0.29871595  0.65551323  1
  Ti  Ti23  1  0.63559503  0.96767050  0.35093442  1
