# generated using pymatgen
data_TiFe3N4
_symmetry_space_group_name_H-M   'P 1'
_cell_length_a   5.05547251
_cell_length_b   5.82467932
_cell_length_c   7.13475691
_cell_angle_alpha   90.03836873
_cell_angle_beta   89.99106324
_cell_angle_gamma   90.03535025
_symmetry_Int_Tables_number   1
_chemical_formula_structural   TiFe3N4
_chemical_formula_sum   'Ti3 Fe9 N12'
_cell_volume   210.09357365
_cell_formula_units_Z   3
loop_
 _symmetry_equiv_pos_site_id
 _symmetry_equiv_pos_as_xyz
  1  'x, y, z'
loop_
 _atom_site_type_symbol
 _atom_site_label
 _atom_site_symmetry_multiplicity
 _atom_site_fract_x
 _atom_site_fract_y
 _atom_site_fract_z
 _atom_site_occupancy
  Fe  Fe0  1  0.50138791  0.27546103  0.00033980  1
  Fe  Fe1  1  0.32572941  0.98429924  0.66734322  1
  Fe  Fe2  1  0.16174464  0.76461079  0.34377939  1
  Fe  Fe3  1  0.50271170  0.76071547  0.99959906  1
  Fe  Fe4  1  0.32420060  0.50128769  0.65691837  1
  Fe  Fe5  1  0.00753719  0.98460718  0.99469482  1
  Fe  Fe6  1  0.85674567  0.75993536  0.66620200  1
  Fe  Fe7  1  0.65909019  0.48167219  0.33252306  1
  Fe  Fe8  1  0.99696550  0.48277737  0.00276378  1
  N  N9  1  0.17226117  0.25721981  0.83411894  1
  N  N10  1  0.49652107  0.24445951  0.49983987  1
  N  N11  1  0.32665682  0.99660870  0.16578092  1
  N  N12  1  0.18089814  0.72594626  0.84463543  1
  N  N13  1  0.49529359  0.73450452  0.49436736  1
  N  N14  1  0.33249303  0.52928312  0.16859092  1
  N  N15  1  0.83003099  0.24381043  0.16427710  1
  N  N16  1  0.67339525  0.99315505  0.83453778  1
  N  N17  1  0.99488827  0.01207248  0.49854381  1
  N  N18  1  0.83901693  0.72759286  0.16809062  1
  N  N19  1  0.68067825  0.52451757  0.83824204  1
  N  N20  1  0.98274741  0.51137747  0.49386685  1
  Ti  Ti21  1  0.16877923  0.27308300  0.32714736  1
  Ti  Ti22  1  0.82608130  0.25993557  0.67835936  1
  Ti  Ti23  1  0.66414542  0.97106686  0.32543791  1
