# generated using pymatgen
data_Ti11FeN12
_symmetry_space_group_name_H-M   'P 1'
_cell_length_a   5.20895425
_cell_length_b   5.99961563
_cell_length_c   7.35536813
_cell_angle_alpha   90.00000000
_cell_angle_beta   89.92417813
_cell_angle_gamma   90.00000000
_symmetry_Int_Tables_number   1
_chemical_formula_structural   Ti11FeN12
_chemical_formula_sum   'Ti11 Fe1 N12'
_cell_volume   229.86772856
_cell_formula_units_Z   1
loop_
 _symmetry_equiv_pos_site_id
 _symmetry_equiv_pos_as_xyz
  1  'x, y, z'
loop_
 _atom_site_type_symbol
 _atom_site_label
 _atom_site_symmetry_multiplicity
 _atom_site_fract_x
 _atom_site_fract_y
 _atom_site_fract_z
 _atom_site_occupancy
  Ti  Ti0  1  0.49988538  0.24830425  0.00494528  1
  Ti  Ti1  1  0.32125743  -0.00003313  0.67261421  1
  Ti  Ti2  1  0.16667200  0.74853284  0.33330918  1
  Ti  Ti3  1  0.49990472  0.75167276  0.00494362  1
  Ti  Ti4  1  0.34553963  0.49999926  0.67232765  1
  Ti  Ti5  1  0.01207588  0.00003313  0.99405248  1
  Ti  Ti6  1  0.83344793  0.75169568  0.66172141  1
  Ti  Ti7  1  0.98779368  0.50000068  0.99433898  1
  Ti  Ti8  1  0.16666132  0.25146709  0.33335744  1
  Ti  Ti9  1  0.83342859  0.24832723  0.66172307  1
  Ti  Ti10  1  0.66666663  -0.00000000  0.33333331  1
  Fe  Fe11  1  0.66666663  0.49999997  0.33333331  1
  N  N12  1  0.16668033  0.25185481  0.83335556  1
  N  N13  1  0.50030033  0.25295464  0.49837589  1
  N  N14  1  0.33225506  0.00000373  0.16873462  1
  N  N15  1  0.16665297  0.74814518  0.83331106  1
  N  N16  1  0.50026385  0.74706561  0.49837860  1
  N  N17  1  0.33626983  0.49998392  0.16840269  1
  N  N18  1  0.83306943  0.25293432  0.16828803  1
  N  N19  1  0.66666669  -0.00000000  0.83333331  1
  N  N20  1  0.00107825  -0.00000373  0.49793204  1
  N  N21  1  0.83303295  0.74704529  0.16829074  1
  N  N22  1  0.66666669  0.49999997  0.83333331  1
  N  N23  1  -0.00293652  0.50001602  0.49826397  1
