# generated using pymatgen
data_Ti3CoN4
_symmetry_space_group_name_H-M   'P 1'
_cell_length_a   5.19367918
_cell_length_b   6.00574535
_cell_length_c   7.28330029
_cell_angle_alpha   90.00000000
_cell_angle_beta   90.10817307
_cell_angle_gamma   90.00000000
_symmetry_Int_Tables_number   1
_chemical_formula_structural   Ti3CoN4
_chemical_formula_sum   'Ti9 Co3 N12'
_cell_volume   227.17967567
_cell_formula_units_Z   3
loop_
 _symmetry_equiv_pos_site_id
 _symmetry_equiv_pos_as_xyz
  1  'x, y, z'
loop_
 _atom_site_type_symbol
 _atom_site_label
 _atom_site_symmetry_multiplicity
 _atom_site_fract_x
 _atom_site_fract_y
 _atom_site_fract_z
 _atom_site_occupancy
  Ti  Ti0  1  0.49444756  0.25107563  0.99163597  1
  Ti  Ti1  1  0.18299734  0.74492850  0.34936489  1
  Ti  Ti2  1  0.49441519  0.74899863  0.99167168  1
  Ti  Ti3  1  0.01268076  0.00004675  0.99201803  1
  Ti  Ti4  1  0.81984021  0.74684698  0.65521444  1
  Ti  Ti5  1  0.99022685  0.50005884  0.01034222  1
  Ti  Ti6  1  0.18306859  0.25498873  0.34934458  1
  Ti  Ti7  1  0.81978795  0.25317956  0.65515965  1
  Ti  Ti8  1  0.67022438  -0.00005664  0.32259911  1
  Co  Co9  1  0.32365295  -0.00001155  0.69041190  1
  Co  Co10  1  0.34327629  0.49990159  0.67771592  1
  Co  Co11  1  0.66788629  0.50002731  0.31577751  1
  N  N12  1  0.15625835  0.25509178  0.84050694  1
  N  N13  1  0.50474945  0.24680934  0.49655505  1
  N  N14  1  0.33619123  0.00000936  0.16592581  1
  N  N15  1  0.15628664  0.74490088  0.84049009  1
  N  N16  1  0.50474910  0.75317680  0.49657029  1
  N  N17  1  0.32247679  0.49998771  0.16356792  1
  N  N18  1  0.83672844  0.24162994  0.16315347  1
  N  N19  1  0.67429884  0.00002144  0.83367822  1
  N  N20  1  0.99482859  0.00001239  0.49791384  1
  N  N21  1  0.83680534  0.75840306  0.16315840  1
  N  N22  1  0.67272177  0.49998273  0.83658044  1
  N  N23  1  0.00140077  0.49998976  0.50064339  1
