# generated using pymatgen
data_Ti11MnN12
_symmetry_space_group_name_H-M   'P 1'
_cell_length_a   5.18592954
_cell_length_b   5.97727101
_cell_length_c   7.33568538
_cell_angle_alpha   90.00000000
_cell_angle_beta   90.08032839
_cell_angle_gamma   90.00000000
_symmetry_Int_Tables_number   1
_chemical_formula_structural   Ti11MnN12
_chemical_formula_sum   'Ti11 Mn1 N12'
_cell_volume   227.38919742
_cell_formula_units_Z   1
loop_
 _symmetry_equiv_pos_site_id
 _symmetry_equiv_pos_as_xyz
  1  'x, y, z'
loop_
 _atom_site_type_symbol
 _atom_site_label
 _atom_site_symmetry_multiplicity
 _atom_site_fract_x
 _atom_site_fract_y
 _atom_site_fract_z
 _atom_site_occupancy
  Ti  Ti0  1  0.50119023  0.24948003  0.00551782  1
  Ti  Ti1  1  0.32268872  0.00001462  0.67135825  1
  Ti  Ti2  1  0.16673160  0.74683758  0.33331771  1
  Ti  Ti3  1  0.50130298  0.75037019  0.00540047  1
  Ti  Ti4  1  0.34411900  0.49995985  0.67038326  1
  Ti  Ti5  1  0.01064459  -0.00001462  0.99530844  1
  Ti  Ti6  1  0.83214308  0.75051990  0.66114887  1
  Ti  Ti7  1  0.98921431  0.50004009  0.99628337  1
  Ti  Ti8  1  0.16660172  0.25316235  0.33334891  1
  Ti  Ti9  1  0.83203033  0.24962980  0.66126622  1
  Ti  Ti10  1  0.66666663  0.00000000  0.33333331  1
  Mn  Mn11  1  0.66666663  0.49999997  0.33333331  1
  N  N12  1  0.16666988  0.25164364  0.83332957  1
  N  N13  1  0.49942913  0.25118198  0.49837667  1
  N  N14  1  0.33281546  -0.00002232  0.16902106  1
  N  N15  1  0.16666342  0.74835635  0.83333705  1
  N  N16  1  0.49944782  0.74877546  0.49843911  1
  N  N17  1  0.33423515  0.49999881  0.16737888  1
  N  N18  1  0.83388546  0.25122447  0.16822752  1
  N  N19  1  0.66666669  0.00000000  0.83333331  1
  N  N20  1  0.00051785  0.00002232  0.49764560  1
  N  N21  1  0.83390415  0.74881795  0.16828996  1
  N  N22  1  0.66666669  0.49999997  0.83333331  1
  N  N23  1  0.99909816  0.50000113  0.49928778  1
