# generated using pymatgen
data_TiMn3N4
_symmetry_space_group_name_H-M   'P 1'
_cell_length_a   5.10954009
_cell_length_b   5.85465438
_cell_length_c   7.19350146
_cell_angle_alpha   89.79920797
_cell_angle_beta   89.82040386
_cell_angle_gamma   90.05621572
_symmetry_Int_Tables_number   1
_chemical_formula_structural   TiMn3N4
_chemical_formula_sum   'Ti3 Mn9 N12'
_cell_volume   215.18817141
_cell_formula_units_Z   3
loop_
 _symmetry_equiv_pos_site_id
 _symmetry_equiv_pos_as_xyz
  1  'x, y, z'
loop_
 _atom_site_type_symbol
 _atom_site_label
 _atom_site_symmetry_multiplicity
 _atom_site_fract_x
 _atom_site_fract_y
 _atom_site_fract_z
 _atom_site_occupancy
  Mn  Mn0  1  0.49883922  0.25258212  0.99454145  1
  Mn  Mn1  1  0.32834042  0.00158940  0.67307840  1
  Mn  Mn2  1  0.16963738  0.74467587  0.34601902  1
  Mn  Mn3  1  0.48800359  0.74282777  0.02276376  1
  Mn  Mn4  1  0.33855747  0.50538688  0.67434032  1
  Mn  Mn5  1  0.00714197  0.99817066  0.99183563  1
  Mn  Mn6  1  0.81859614  0.75201178  0.66502776  1
  Mn  Mn7  1  0.68205134  0.49875116  0.33312395  1
  Mn  Mn8  1  -0.00260965  0.50604082  -0.00425697  1
  N  N9  1  0.17226603  0.25403123  0.83593976  1
  N  N10  1  0.49699573  0.24956148  0.50087772  1
  N  N11  1  0.32903939  -0.00123629  0.16227847  1
  N  N12  1  0.17351488  0.75302545  0.83293448  1
  N  N13  1  0.49618667  0.75023760  0.50097630  1
  N  N14  1  0.32817254  0.50487683  0.16573108  1
  N  N15  1  0.82897604  0.25008840  0.15987202  1
  N  N16  1  0.66116349  0.99001633  0.83479657  1
  N  N17  1  -0.00180872  -0.00077591  0.50005313  1
  N  N18  1  0.83248136  0.74868278  0.15305024  1
  N  N19  1  0.66224965  0.51260476  0.83548274  1
  N  N20  1  0.99921488  0.50137072  0.50089590  1
  Ti  Ti21  1  0.18156636  0.25226214  0.33013857  1
  Ti  Ti22  1  0.84195193  0.24508868  0.67230600  1
  Ti  Ti23  1  0.66947158  0.98812885  0.31819347  1
