# generated using pymatgen
data_Ti3MnN4
_symmetry_space_group_name_H-M   'P 1'
_cell_length_a   5.18881114
_cell_length_b   5.98239685
_cell_length_c   7.33012992
_cell_angle_alpha   90.00000000
_cell_angle_beta   90.01932538
_cell_angle_gamma   90.00000000
_symmetry_Int_Tables_number   1
_chemical_formula_structural   Ti3MnN4
_chemical_formula_sum   'Ti9 Mn3 N12'
_cell_volume   227.53841586
_cell_formula_units_Z   3
loop_
 _symmetry_equiv_pos_site_id
 _symmetry_equiv_pos_as_xyz
  1  'x, y, z'
loop_
 _atom_site_type_symbol
 _atom_site_label
 _atom_site_symmetry_multiplicity
 _atom_site_fract_x
 _atom_site_fract_y
 _atom_site_fract_z
 _atom_site_occupancy
  Ti  Ti0  1  0.50023647  0.25242859  0.99348566  1
  Ti  Ti1  1  0.18314555  0.74184877  0.34589844  1
  Ti  Ti2  1  0.50024166  0.74753594  0.99355698  1
  Ti  Ti3  1  0.01407099  -0.00000761  0.99516272  1
  Ti  Ti4  1  0.82941216  0.74766504  0.65700827  1
  Ti  Ti5  1  0.99583410  0.50000424  0.00630447  1
  Ti  Ti6  1  0.18309298  0.25808814  0.34590275  1
  Ti  Ti7  1  0.82936771  0.25241923  0.65696698  1
  Ti  Ti8  1  0.67281365  0.00003557  0.33183706  1
  Mn  Mn9  1  0.28243777  -0.00003651  0.68232593  1
  Mn  Mn10  1  0.32950192  0.49998616  0.70218789  1
  Mn  Mn11  1  0.65373593  0.50008596  0.31415797  1
  N  N12  1  0.16750982  0.25046189  0.82945847  1
  N  N13  1  0.50459092  0.25794447  0.49934489  1
  N  N14  1  0.34078126  -0.00001143  0.16825902  1
  N  N15  1  0.16754573  0.74949378  0.82947771  1
  N  N16  1  0.50460984  0.74204294  0.49938425  1
  N  N17  1  0.32887178  0.49999268  0.16363944  1
  N  N18  1  0.83752290  0.24706787  0.16403612  1
  N  N19  1  0.66004419  0.00001350  0.82841640  1
  N  N20  1  0.00105070  -0.00000446  0.49652937  1
  N  N21  1  0.83758839  0.75294561  0.16404929  1
  N  N22  1  0.67047293  0.49999275  0.83177036  1
  N  N23  1  0.00552035  0.50000641  0.50083931  1
