# generated using pymatgen
data_Ti11NiN12
_symmetry_space_group_name_H-M   'P 1'
_cell_length_a   5.19877297
_cell_length_b   6.00344054
_cell_length_c   7.35971456
_cell_angle_alpha   90.00000000
_cell_angle_beta   90.07779171
_cell_angle_gamma   90.00000000
_symmetry_Int_Tables_number   1
_chemical_formula_structural   Ti11NiN12
_chemical_formula_sum   'Ti11 Ni1 N12'
_cell_volume   229.70033929
_cell_formula_units_Z   1
loop_
 _symmetry_equiv_pos_site_id
 _symmetry_equiv_pos_as_xyz
  1  'x, y, z'
loop_
 _atom_site_type_symbol
 _atom_site_label
 _atom_site_symmetry_multiplicity
 _atom_site_fract_x
 _atom_site_fract_y
 _atom_site_fract_z
 _atom_site_occupancy
  Ti  Ti0  1  0.50289217  0.25077248  0.00555513  1
  Ti  Ti1  1  0.32189364  0.00001610  0.67309147  1
  Ti  Ti2  1  0.16671523  0.74464277  0.33334284  1
  Ti  Ti3  1  0.50289393  0.74916010  0.00549088  1
  Ti  Ti4  1  0.34556161  0.50004040  0.67198457  1
  Ti  Ti5  1  0.01143967  -0.00001610  0.99357522  1
  Ti  Ti6  1  0.83044114  0.74922745  0.66111156  1
  Ti  Ti7  1  0.98777170  0.49995954  0.99468206  1
  Ti  Ti8  1  0.16661809  0.25535716  0.33332378  1
  Ti  Ti9  1  0.83043938  0.25083989  0.66117581  1
  Ti  Ti10  1  0.66666663  0.00000000  0.33333331  1
  Ni  Ni11  1  0.66666663  0.49999997  0.33333331  1
  N  N12  1  0.16668643  0.25231003  0.83334854  1
  N  N13  1  0.49520926  0.24378081  0.50340328  1
  N  N14  1  0.33297560  -0.00001349  0.16806834  1
  N  N15  1  0.16664687  0.74768996  0.83331808  1
  N  N16  1  0.49513164  0.75622398  0.50346268  1
  N  N17  1  0.32357678  0.50000416  0.16295235  1
  N  N18  1  0.83820164  0.24377595  0.16320395  1
  N  N19  1  0.66666669  0.00000000  0.83333331  1
  N  N20  1  0.00035771  0.00001349  0.49859832  1
  N  N21  1  0.83812402  0.75621912  0.16326335  1
  N  N22  1  0.66666669  0.49999997  0.83333331  1
  N  N23  1  0.00975653  0.49999578  0.50371431  1
