# generated using pymatgen
data_TiNi3N4
_symmetry_space_group_name_H-M   'P 1'
_cell_length_a   5.05971740
_cell_length_b   5.81437904
_cell_length_c   7.12228564
_cell_angle_alpha   89.53785625
_cell_angle_beta   90.15850879
_cell_angle_gamma   90.04618553
_symmetry_Int_Tables_number   1
_chemical_formula_structural   TiNi3N4
_chemical_formula_sum   'Ti3 Ni9 N12'
_cell_volume   209.52365681
_cell_formula_units_Z   3
loop_
 _symmetry_equiv_pos_site_id
 _symmetry_equiv_pos_as_xyz
  1  'x, y, z'
loop_
 _atom_site_type_symbol
 _atom_site_label
 _atom_site_symmetry_multiplicity
 _atom_site_fract_x
 _atom_site_fract_y
 _atom_site_fract_z
 _atom_site_occupancy
  Ni  Ni0  1  0.49859357  0.25147246  0.00447830  1
  Ni  Ni1  1  0.32720040  0.99976986  0.66424523  1
  Ni  Ni2  1  0.16861660  0.75669701  0.33813578  1
  Ni  Ni3  1  0.49533994  0.75302553  0.99678012  1
  Ni  Ni4  1  0.33475103  0.49733396  0.66680853  1
  Ni  Ni5  1  0.00826585  0.00018045  0.00013552  1
  Ni  Ni6  1  0.83765158  0.75297573  0.66248337  1
  Ni  Ni7  1  0.66761181  0.49538464  0.33431188  1
  Ni  Ni8  1  0.00014042  0.49756237  0.99721922  1
  N  N9  1  0.17751656  0.25787600  0.84329807  1
  N  N10  1  0.50029300  0.24734160  0.49942185  1
  N  N11  1  0.33383386  0.99056245  0.16013805  1
  N  N12  1  0.15757375  0.73697382  0.82560523  1
  N  N13  1  0.49242579  0.74423728  0.50148297  1
  N  N14  1  0.34946633  0.51657163  0.16405806  1
  N  N15  1  0.82847382  0.25041089  0.16112231  1
  N  N16  1  0.66427666  0.98446496  0.83532290  1
  N  N17  1  0.99918638  0.01128211  0.49972236  1
  N  N18  1  0.85584829  0.73889251  0.16618549  1
  N  N19  1  0.65899602  0.51709438  0.83640553  1
  N  N20  1  0.99453408  0.50405240  0.50013674  1
  Ti  Ti21  1  0.16345814  0.28338807  0.33155981  1
  Ti  Ti22  1  0.81545481  0.24654547  0.68872108  1
  Ti  Ti23  1  0.67049096  0.96590393  0.32222137  1
