# generated using pymatgen
data_TaTiNbAuC4
_symmetry_space_group_name_H-M   'P 1'
_cell_length_a   6.68276430
_cell_length_b   6.87337397
_cell_length_c   8.69951062
_cell_angle_alpha   89.60951143
_cell_angle_beta   89.30248577
_cell_angle_gamma   102.34870644
_symmetry_Int_Tables_number   1
_chemical_formula_structural   TaTiNbAuC4
_chemical_formula_sum   'Ta4 Ti4 Nb4 Au4 C16'
_cell_volume   390.30375331
_cell_formula_units_Z   4
loop_
 _symmetry_equiv_pos_site_id
 _symmetry_equiv_pos_as_xyz
  1  'x, y, z'
loop_
 _atom_site_type_symbol
 _atom_site_label
 _atom_site_symmetry_multiplicity
 _atom_site_fract_x
 _atom_site_fract_y
 _atom_site_fract_z
 _atom_site_occupancy
  C  C0  1  0.69762373  0.76419685  0.50659261  1
  C  C1  1  0.76534606  0.23433868  0.49738991  1
  C  C2  1  0.19835373  0.79283161  0.50081760  1
  C  C3  1  0.25958794  0.28825875  0.49055225  1
  C  C4  1  0.56596931  0.46118718  0.24959129  1
  C  C5  1  0.46978605  0.01630564  0.25348467  1
  C  C6  1  0.69390037  0.77504410  0.00388779  1
  C  C7  1  0.77791187  0.20997363  0.00359436  1
  C  C8  1  0.06023561  0.47566523  0.25191010  1
  C  C9  1  0.99921885  0.02133251  0.24943968  1
  C  C10  1  0.19246506  0.79624009  0.00297870  1
  C  C11  1  0.28775432  0.22093752  0.99453721  1
  C  C12  1  0.54647446  0.44162410  0.74960035  1
  C  C13  1  0.51398177  0.96513186  0.75158703  1
  C  C14  1  0.97504785  0.53103464  0.74994418  1
  C  C15  1  0.97625663  0.99954842  0.75014322  1
  Nb  Nb16  1  0.17865407  0.79898266  0.74939377  1
  Nb  Nb17  1  0.97706637  0.01265534  0.49859522  1
  Nb  Nb18  1  0.05499905  0.47863259  0.48736408  1
  Nb  Nb19  1  0.19017650  0.81094371  0.25265678  1
  Ta  Ta20  1  0.77590456  0.23041929  0.75378775  1
  Ta  Ta21  1  0.69868242  0.74627537  0.76560159  1
  Ta  Ta22  1  0.57058215  0.44942107  0.49107045  1
  Ta  Ta23  1  0.01183128  0.02621882  0.99903908  1
  Ti  Ti24  1  0.50597125  0.97022285  0.50479039  1
  Ti  Ti25  1  0.77782435  0.22506881  0.24596379  1
  Ti  Ti26  1  0.28381835  0.27002027  0.24084808  1
  Ti  Ti27  1  0.49774829  0.98863583  0.00296899  1
  Au  Au28  1  0.24629236  0.25454797  0.73970264  1
  Au  Au29  1  0.70446175  0.77952023  0.25317143  1
  Au  Au30  1  0.53096941  0.46921778  0.00114473  1
  Au  Au31  1  0.01510421  0.49556656  0.00785029  1
