# generated using pymatgen
data_ZrTaTiVOsC5
_symmetry_space_group_name_H-M   'P 1'
_cell_length_a   6.98712817
_cell_length_b   7.02775388
_cell_length_c   8.80609195
_cell_angle_alpha   89.89249537
_cell_angle_beta   90.37577391
_cell_angle_gamma   90.08701946
_symmetry_Int_Tables_number   1
_chemical_formula_structural   ZrTaTiVOsC5
_chemical_formula_sum   'Zr4 Ta4 Ti4 V4 Os4 C20'
_cell_volume   432.40217652
_cell_formula_units_Z   4
loop_
 _symmetry_equiv_pos_site_id
 _symmetry_equiv_pos_as_xyz
  1  'x, y, z'
loop_
 _atom_site_type_symbol
 _atom_site_label
 _atom_site_symmetry_multiplicity
 _atom_site_fract_x
 _atom_site_fract_y
 _atom_site_fract_z
 _atom_site_occupancy
  C  C0  1  0.39111189  0.19676557  0.75525337  1
  C  C1  1  0.49622949  0.49006370  0.00653869  1
  C  C2  1  0.40837819  0.19184823  0.25492451  1
  C  C3  1  0.49442523  0.51682473  0.47761532  1
  C  C4  1  0.60106234  0.79911192  0.75851452  1
  C  C5  1  0.69491584  0.09372091  0.00234045  1
  C  C6  1  0.80669029  0.40703170  0.74265041  1
  C  C7  1  0.89614050  0.71627624  0.00557444  1
  C  C8  1  0.10894992  0.28471276  0.00405559  1
  C  C9  1  0.61273372  0.81232340  0.25686971  1
  C  C10  1  0.68216953  0.09168364  0.48115023  1
  C  C11  1  0.80760349  0.40847842  0.25620318  1
  C  C12  1  0.90486312  0.69587406  0.49894310  1
  C  C13  1  0.00357875  0.99674454  0.74753112  1
  C  C14  1  0.09358828  0.30611516  0.49208607  1
  C  C15  1  0.18948905  0.60377908  0.74357639  1
  C  C16  1  0.30175600  0.91133585  0.00393233  1
  C  C17  1  0.01304569  0.00121499  0.24576233  1
  C  C18  1  0.20951038  0.59044690  0.26675991  1
  C  C19  1  0.30726543  0.90352734  0.50290651  1
  Os  Os20  1  0.49244032  0.44898782  0.24532338  1
  Os  Os21  1  0.73476004  0.10464091  0.23952251  1
  Os  Os22  1  0.39841539  0.22189063  0.51614318  1
  Os  Os23  1  0.62317971  0.78604857  0.51211668  1
  Ta  Ta24  1  0.31932580  0.90555384  0.26089285  1
  Ta  Ta25  1  0.29576452  0.89307693  0.74469400  1
  Ta  Ta26  1  0.99797968  0.00821000  0.49203172  1
  Ta  Ta27  1  0.09607503  0.30403181  0.74360738  1
  Ti  Ti28  1  0.60376748  0.81001780  0.00274007  1
  Ti  Ti29  1  0.89247134  0.70975411  0.25096625  1
  Ti  Ti30  1  0.89872198  0.70445179  0.75123498  1
  Ti  Ti31  1  0.78525069  0.40128145  0.48889726  1
  V  V32  1  0.16320645  0.58855771  0.49631037  1
  V  V33  1  0.39115087  0.19031397  0.97705539  1
  V  V34  1  0.00630293  0.00368425  0.01125962  1
  V  V35  1  0.07938593  0.30386385  0.25570251  1
  Zr  Zr36  1  0.20103728  0.59879591  0.01074532  1
  Zr  Zr37  1  0.49916587  0.50407214  0.74597004  1
  Zr  Zr38  1  0.69976437  0.09788011  0.74525949  1
  Zr  Zr39  1  0.79832718  0.39700725  0.00633877  1
