# generated using pymatgen
data_ZrTaTiVRhC5
_symmetry_space_group_name_H-M   'P 1'
_cell_length_a   6.98871237
_cell_length_b   7.01215275
_cell_length_c   8.81405900
_cell_angle_alpha   90.25787675
_cell_angle_beta   90.44486227
_cell_angle_gamma   90.37297622
_symmetry_Int_Tables_number   1
_chemical_formula_structural   ZrTaTiVRhC5
_chemical_formula_sum   'Zr4 Ta4 Ti4 V4 Rh4 C20'
_cell_volume   431.91441343
_cell_formula_units_Z   4
loop_
 _symmetry_equiv_pos_site_id
 _symmetry_equiv_pos_as_xyz
  1  'x, y, z'
loop_
 _atom_site_type_symbol
 _atom_site_label
 _atom_site_symmetry_multiplicity
 _atom_site_fract_x
 _atom_site_fract_y
 _atom_site_fract_z
 _atom_site_occupancy
  C  C0  1  0.38844060  0.19340157  0.76696040  1
  C  C1  1  0.49661794  0.49249974  0.99981892  1
  C  C2  1  0.42240341  0.20493689  0.26283139  1
  C  C3  1  0.48781004  0.50526183  0.48508480  1
  C  C4  1  0.59937563  0.79874617  0.75883310  1
  C  C5  1  0.69905003  0.09310740  0.00075292  1
  C  C6  1  0.80655214  0.40650286  0.74058596  1
  C  C7  1  0.89507983  0.71624038  0.00522074  1
  C  C8  1  0.10664198  0.28671036  0.00577653  1
  C  C9  1  0.60861438  0.80554839  0.25444429  1
  C  C10  1  0.68745475  0.09656018  0.48392999  1
  C  C11  1  0.81136212  0.40483284  0.25687719  1
  C  C12  1  0.90636356  0.69453862  0.49631966  1
  C  C13  1  0.00224267  0.99533875  0.74563914  1
  C  C14  1  0.09209354  0.30443747  0.49162764  1
  C  C15  1  0.18975151  0.60134016  0.74221263  1
  C  C16  1  0.30083280  0.91302386  0.00646595  1
  C  C17  1  0.01499258  0.00124402  0.24558886  1
  C  C18  1  0.19959476  0.59237206  0.26365595  1
  C  C19  1  0.30123778  0.89600832  0.50111641  1
  Rh  Rh20  1  0.49207998  0.48507698  0.24309597  1
  Rh  Rh21  1  0.72273335  0.09976973  0.24379237  1
  Rh  Rh22  1  0.39667446  0.19981862  0.51100452  1
  Rh  Rh23  1  0.61143898  0.79903339  0.50812421  1
  Ta  Ta24  1  0.32772760  0.91516575  0.26088890  1
  Ta  Ta25  1  0.29473543  0.89422931  0.74571469  1
  Ta  Ta26  1  0.99365215  0.00164159  0.49012958  1
  Ta  Ta27  1  0.09651270  0.30027770  0.74376937  1
  Ti  Ti28  1  0.60372731  0.80497842  0.00133525  1
  Ti  Ti29  1  0.89280726  0.71205491  0.25369086  1
  Ti  Ti30  1  0.89916258  0.70370718  0.74297987  1
  Ti  Ti31  1  0.78496676  0.41130842  0.49038895  1
  V  V32  1  0.20336375  0.56794550  0.48614092  1
  V  V33  1  0.39726432  0.20005699  0.99130104  1
  V  V34  1  0.00347890  0.00356768  0.01544732  1
  V  V35  1  0.07296577  0.30199916  0.25454755  1
  Zr  Zr36  1  0.19913531  0.60119260  0.00976024  1
  Zr  Zr37  1  0.49614999  0.50013007  0.74442553  1
  Zr  Zr38  1  0.69664235  0.09688614  0.74497483  1
  Zr  Zr39  1  0.79826899  0.39850801  0.00474559  1
