# generated using pymatgen
data_ZrTaTiVReC5
_symmetry_space_group_name_H-M   'P 1'
_cell_length_a   6.99511090
_cell_length_b   7.00004803
_cell_length_c   8.83248045
_cell_angle_alpha   89.93842024
_cell_angle_beta   90.18186254
_cell_angle_gamma   90.12133764
_symmetry_Int_Tables_number   1
_chemical_formula_structural   ZrTaTiVReC5
_chemical_formula_sum   'Zr4 Ta4 Ti4 V4 Re4 C20'
_cell_volume   432.48883409
_cell_formula_units_Z   4
loop_
 _symmetry_equiv_pos_site_id
 _symmetry_equiv_pos_as_xyz
  1  'x, y, z'
loop_
 _atom_site_type_symbol
 _atom_site_label
 _atom_site_symmetry_multiplicity
 _atom_site_fract_x
 _atom_site_fract_y
 _atom_site_fract_z
 _atom_site_occupancy
  C  C0  1  0.39250630  0.19613457  0.75422804  1
  C  C1  1  0.49882835  0.49376979  0.00833467  1
  C  C2  1  0.40488078  0.19587151  0.25071882  1
  C  C3  1  0.49597996  0.50841356  0.48365176  1
  C  C4  1  0.60250121  0.79992816  0.75444153  1
  C  C5  1  0.69525273  0.09432164  0.00483106  1
  C  C6  1  0.80829255  0.40719051  0.74323757  1
  C  C7  1  0.89696637  0.71711247  0.00432808  1
  C  C8  1  0.11041475  0.28500065  0.00383696  1
  C  C9  1  0.60907918  0.80423784  0.25461907  1
  C  C10  1  0.68486019  0.09673156  0.48616440  1
  C  C11  1  0.80310657  0.40178146  0.25619481  1
  C  C12  1  0.90264261  0.69770825  0.49884249  1
  C  C13  1  0.00475562  0.99710115  0.74714011  1
  C  C14  1  0.09495443  0.30641625  0.49170748  1
  C  C15  1  0.19030751  0.60401640  0.74374266  1
  C  C16  1  0.30119387  0.91224170  0.00335535  1
  C  C17  1  0.00959255  0.00118862  0.24638439  1
  C  C18  1  0.20697559  0.58971268  0.26485065  1
  C  C19  1  0.30492824  0.90029430  0.50155282  1
  Re  Re20  1  0.50563004  0.45383170  0.24547346  1
  Re  Re21  1  0.72547604  0.10197403  0.23819960  1
  Re  Re22  1  0.39722453  0.22277506  0.51550472  1
  Re  Re23  1  0.61780774  0.78368034  0.51086763  1
  Ta  Ta24  1  0.31829891  0.90735022  0.25878381  1
  Ta  Ta25  1  0.29561446  0.89434535  0.74357256  1
  Ta  Ta26  1  0.99795854  0.00706842  0.49075126  1
  Ta  Ta27  1  0.09914879  0.30354029  0.74490948  1
  Ti  Ti28  1  0.60359478  0.80837393  0.00081163  1
  Ti  Ti29  1  0.89364623  0.70851602  0.25079126  1
  Ti  Ti30  1  0.90021864  0.70431297  0.75114786  1
  Ti  Ti31  1  0.79331771  0.39982632  0.49372515  1
  V  V32  1  0.16454388  0.59291519  0.49487733  1
  V  V33  1  0.38898731  0.19117613  0.97774657  1
  V  V34  1  0.00304201  0.00292339  0.01529114  1
  V  V35  1  0.07270722  0.30657012  0.25444026  1
  Zr  Zr36  1  0.20131826  0.60056316  0.01046778  1
  Zr  Zr37  1  0.50038987  0.50335047  0.74870205  1
  Zr  Zr38  1  0.70143521  0.09895294  0.74772278  1
  Zr  Zr39  1  0.80162047  0.39878087  0.00405099  1
