# generated using pymatgen
data_ZrTaTiVCrC5
_symmetry_space_group_name_H-M   'P 1'
_cell_length_a   6.95200607
_cell_length_b   6.93286483
_cell_length_c   8.73188303
_cell_angle_alpha   89.64482319
_cell_angle_beta   89.79428678
_cell_angle_gamma   89.70413554
_symmetry_Int_Tables_number   1
_chemical_formula_structural   ZrTaTiVCrC5
_chemical_formula_sum   'Zr4 Ta4 Ti4 V4 Cr4 C20'
_cell_volume   420.83698483
_cell_formula_units_Z   4
loop_
 _symmetry_equiv_pos_site_id
 _symmetry_equiv_pos_as_xyz
  1  'x, y, z'
loop_
 _atom_site_type_symbol
 _atom_site_label
 _atom_site_symmetry_multiplicity
 _atom_site_fract_x
 _atom_site_fract_y
 _atom_site_fract_z
 _atom_site_occupancy
  C  C0  1  0.39453908  0.19445979  0.75149879  1
  C  C1  1  0.49891462  0.49183202  0.01227284  1
  C  C2  1  0.39960279  0.20163848  0.25142385  1
  C  C3  1  0.49458963  0.49571121  0.48268294  1
  C  C4  1  0.60186783  0.80211924  0.74756817  1
  C  C5  1  0.69705796  0.09273354  0.01361446  1
  C  C6  1  0.80936930  0.40872679  0.74205909  1
  C  C7  1  0.89377130  0.71691280  0.00402995  1
  C  C8  1  0.10758913  0.28498291  0.00644936  1
  C  C9  1  0.59974576  0.80162354  0.25787123  1
  C  C10  1  0.69840323  0.10349377  0.49090004  1
  C  C11  1  0.79476364  0.39638809  0.25797948  1
  C  C12  1  0.89605480  0.70334142  0.49689017  1
  C  C13  1  0.00648606  0.99606860  0.75067306  1
  C  C14  1  0.10742583  0.30403524  0.49163079  1
  C  C15  1  0.19373128  0.60153208  0.73930494  1
  C  C16  1  0.29802012  0.91073745  0.00362130  1
  C  C17  1  0.99190488  0.00416725  0.24603189  1
  C  C18  1  0.19891700  0.59170802  0.26179940  1
  C  C19  1  0.31056044  0.90466057  0.49804221  1
  Cr  Cr20  1  0.51006997  0.46170339  0.25385337  1
  Cr  Cr21  1  0.69203217  0.10567242  0.25604316  1
  Cr  Cr22  1  0.42265026  0.19490509  0.47448654  1
  Cr  Cr23  1  0.59629852  0.83841706  0.48751861  1
  Ta  Ta24  1  0.30751798  0.90088629  0.25428190  1
  Ta  Ta25  1  0.30429845  0.89915228  0.74672706  1
  Ta  Ta26  1  0.00528046  0.00113870  0.49386517  1
  Ta  Ta27  1  0.10377981  0.29944247  0.74778307  1
  Ti  Ti28  1  0.59882491  0.80271982  0.01079609  1
  Ti  Ti29  1  0.88811024  0.70966424  0.25649515  1
  Ti  Ti30  1  0.89886720  0.70496362  0.74223113  1
  Ti  Ti31  1  0.79169364  0.40464654  0.49448353  1
  V  V32  1  0.20896849  0.56975262  0.48649840  1
  V  V33  1  0.40659386  0.19850004  0.01964196  1
  V  V34  1  0.00106393  0.00062712  0.00887156  1
  V  V35  1  0.07135250  0.30273955  0.25230778  1
  Zr  Zr36  1  0.19831315  0.59794706  0.00788678  1
  Zr  Zr37  1  0.49965701  0.49990458  0.74207905  1
  Zr  Zr38  1  0.70142527  0.10022884  0.75213399  1
  Zr  Zr39  1  0.79988753  0.40011548  0.00567173  1
