# generated using pymatgen
data_ZrTaTiMnVC5
_symmetry_space_group_name_H-M   'P 1'
_cell_length_a   6.94173031
_cell_length_b   6.96342921
_cell_length_c   8.70737709
_cell_angle_alpha   89.78326270
_cell_angle_beta   89.77196273
_cell_angle_gamma   89.88445677
_symmetry_Int_Tables_number   1
_chemical_formula_structural   ZrTaTiMnVC5
_chemical_formula_sum   'Zr4 Ta4 Ti4 Mn4 V4 C20'
_cell_volume   420.89216161
_cell_formula_units_Z   4
loop_
 _symmetry_equiv_pos_site_id
 _symmetry_equiv_pos_as_xyz
  1  'x, y, z'
loop_
 _atom_site_type_symbol
 _atom_site_label
 _atom_site_symmetry_multiplicity
 _atom_site_fract_x
 _atom_site_fract_y
 _atom_site_fract_z
 _atom_site_occupancy
  C  C0  1  0.39540454  0.19520446  0.75420308  1
  C  C1  1  0.49472500  0.48836010  0.01455034  1
  C  C2  1  0.40335176  0.20589886  0.25362218  1
  C  C3  1  0.49050650  0.48367308  0.48211493  1
  C  C4  1  0.60259262  0.80209069  0.74625268  1
  C  C5  1  0.69783467  0.09331119  0.01309235  1
  C  C6  1  0.81035197  0.40950227  0.74166231  1
  C  C7  1  0.89310694  0.71632251  0.00533358  1
  C  C8  1  0.10674846  0.28562870  0.00464189  1
  C  C9  1  0.60642418  0.81958776  0.25673602  1
  C  C10  1  0.68990579  0.10588885  0.48492010  1
  C  C11  1  0.79814936  0.39609528  0.25878292  1
  C  C12  1  0.88972647  0.70478587  0.49693513  1
  C  C13  1  0.00594630  0.99572519  0.75028177  1
  C  C14  1  0.10964181  0.30137572  0.49166821  1
  C  C15  1  0.19317908  0.60243486  0.73878407  1
  C  C16  1  0.29882302  0.91146012  0.00189100  1
  C  C17  1  0.99920959  0.00295187  0.24671250  1
  C  C18  1  0.20599560  0.58956183  0.26219475  1
  C  C19  1  0.31044737  0.90326413  0.49737902  1
  Mn  Mn20  1  0.48005361  0.44773517  0.25308992  1
  Mn  Mn21  1  0.72752266  0.09179021  0.25290638  1
  Mn  Mn22  1  0.40115412  0.18830474  0.52181150  1
  Mn  Mn23  1  0.59469856  0.85431750  0.48004021  1
  Ta  Ta24  1  0.30833491  0.91663753  0.25247461  1
  Ta  Ta25  1  0.30427128  0.89503859  0.74686270  1
  Ta  Ta26  1  0.00744479  0.99963150  0.49436276  1
  Ta  Ta27  1  0.10107759  0.30272383  0.74474060  1
  Ti  Ti28  1  0.60234572  0.80786166  0.01374847  1
  Ti  Ti29  1  0.89224486  0.70752307  0.25778758  1
  Ti  Ti30  1  0.89820145  0.70478359  0.74245691  1
  Ti  Ti31  1  0.78697708  0.40472299  0.49119685  1
  V  V32  1  0.21791754  0.56700080  0.48593438  1
  V  V33  1  0.39600470  0.19684977  0.98531432  1
  V  V34  1  0.99737451  0.00136461  0.00909400  1
  V  V35  1  0.08106614  0.29938749  0.25432367  1
  Zr  Zr36  1  0.19910977  0.59955291  0.00882172  1
  Zr  Zr37  1  0.50180168  0.50225003  0.74272846  1
  Zr  Zr38  1  0.70320548  0.10051830  0.75086438  1
  Zr  Zr39  1  0.79712249  0.39888237  0.00968172  1
