# generated using pymatgen
data_ZrTaTiVIrC5
_symmetry_space_group_name_H-M   'P 1'
_cell_length_a   6.98633863
_cell_length_b   7.03009032
_cell_length_c   8.83723725
_cell_angle_alpha   90.27073374
_cell_angle_beta   90.31568308
_cell_angle_gamma   90.42839251
_symmetry_Int_Tables_number   1
_chemical_formula_structural   ZrTaTiVIrC5
_chemical_formula_sum   'Zr4 Ta4 Ti4 V4 Ir4 C20'
_cell_volume   434.01364777
_cell_formula_units_Z   4
loop_
 _symmetry_equiv_pos_site_id
 _symmetry_equiv_pos_as_xyz
  1  'x, y, z'
loop_
 _atom_site_type_symbol
 _atom_site_label
 _atom_site_symmetry_multiplicity
 _atom_site_fract_x
 _atom_site_fract_y
 _atom_site_fract_z
 _atom_site_occupancy
  C  C0  1  0.38813464  0.19394940  0.76536583  1
  C  C1  1  0.49517315  0.49163172  0.99859031  1
  C  C2  1  0.42940980  0.21065176  0.26794645  1
  C  C3  1  0.48689620  0.51077790  0.48287829  1
  C  C4  1  0.60032694  0.79756826  0.76099344  1
  C  C5  1  0.69620151  0.09238688  0.00072167  1
  C  C6  1  0.80599940  0.40571242  0.74048799  1
  C  C7  1  0.89461173  0.71525196  0.00593975  1
  C  C8  1  0.10586611  0.28664223  0.00450582  1
  C  C9  1  0.61045109  0.80675628  0.26001173  1
  C  C10  1  0.68284846  0.09349552  0.48307001  1
  C  C11  1  0.80264471  0.40072688  0.25594740  1
  C  C12  1  0.90952542  0.69135419  0.49649992  1
  C  C13  1  0.00276435  0.99465599  0.74484455  1
  C  C14  1  0.09008361  0.30239893  0.49055362  1
  C  C15  1  0.18964594  0.60139638  0.74231372  1
  C  C16  1  0.30125055  0.91270202  0.00717908  1
  C  C17  1  0.01872029  0.00012380  0.24579908  1
  C  C18  1  0.19900054  0.58880241  0.26250859  1
  C  C19  1  0.30643961  0.89902764  0.50144581  1
  Ir  Ir20  1  0.49719270  0.49651500  0.24018497  1
  Ir  Ir21  1  0.72724829  0.09701130  0.24111504  1
  Ir  Ir22  1  0.39519185  0.20341338  0.51599057  1
  Ir  Ir23  1  0.61844943  0.79613922  0.51379482  1
  Ta  Ta24  1  0.33002897  0.92299173  0.26123383  1
  Ta  Ta25  1  0.29404641  0.89230918  0.74483752  1
  Ta  Ta26  1  0.99308741  0.00102905  0.49013325  1
  Ta  Ta27  1  0.09509198  0.30084281  0.74379564  1
  Ti  Ti28  1  0.60339354  0.80488402  0.99981309  1
  Ti  Ti29  1  0.89508772  0.71057523  0.25297843  1
  Ti  Ti30  1  0.89980034  0.70312156  0.74454372  1
  Ti  Ti31  1  0.78425821  0.41201014  0.49185009  1
  V  V32  1  0.19691503  0.56500385  0.48487508  1
  V  V33  1  0.39248175  0.19851322  0.98218671  1
  V  V34  1  0.00696688  0.00313836  0.01615085  1
  V  V35  1  0.06643430  0.30120480  0.25297959  1
  Zr  Zr36  1  0.19845833  0.60076707  0.01013215  1
  Zr  Zr37  1  0.49578767  0.50140060  0.74540132  1
  Zr  Zr38  1  0.69804967  0.09591861  0.74623402  1
  Zr  Zr39  1  0.79603547  0.39719825  0.00416632  1
