# generated using pymatgen
data_HfTaTiNbWC5
_symmetry_space_group_name_H-M   'P 1'
_cell_length_a   6.98100000
_cell_length_b   4.37700000
_cell_length_c   6.97700000
_cell_angle_alpha   90.00000000
_cell_angle_beta   90.00000000
_cell_angle_gamma   90.00000000
_symmetry_Int_Tables_number   1
_chemical_formula_structural   HfTaTiNbWC5
_chemical_formula_sum   'Hf2 Ta2 Ti2 Nb2 W2 C10'
_cell_volume   213.18807475
_cell_formula_units_Z   2
loop_
 _symmetry_equiv_pos_site_id
 _symmetry_equiv_pos_as_xyz
  1  'x, y, z'
loop_
 _atom_site_type_symbol
 _atom_site_label
 _atom_site_symmetry_multiplicity
 _atom_site_fract_x
 _atom_site_fract_y
 _atom_site_fract_z
 _atom_site_occupancy
  C  C0  1  0.70479408  0.00000000  0.90454180  1
  C  C1  1  0.49712833  0.00000000  0.49245070  1
  C  C2  1  0.59827142  0.50000000  0.19717333  1
  C  C3  1  0.89991938  0.00000000  0.29782992  1
  C  C4  1  0.00411652  0.50000000  0.00786142  1
  C  C5  1  0.30256707  0.00000000  0.10771928  1
  C  C6  1  0.40337990  0.50000000  0.80307429  1
  C  C7  1  0.79721903  0.50000000  0.59905466  1
  C  C8  1  0.09605912  0.00000000  0.69962787  1
  C  C9  1  0.19501282  0.50000000  0.39186875  1
  Hf  Hf10  1  0.40170134  0.00000000  0.80456918  1
  Hf  Hf11  1  0.10068907  0.50000000  0.69842377  1
  Nb  Nb12  1  0.50176431  0.50000000  0.49305154  1
  Nb  Nb13  1  0.79614506  0.00000000  0.59250431  1
  Ta  Ta14  1  0.70023015  0.50000000  0.90434076  1
  Ta  Ta15  1  0.00304441  0.00000000  0.00471271  1
  Ti  Ti16  1  0.30552483  0.50000000  0.10506918  1
  Ti  Ti17  1  0.59698667  0.00000000  0.20050869  1
  W  W18  1  0.20769337  0.00000000  0.39867849  1
  W  W19  1  0.88775314  0.50000000  0.29693933  1
