# generated using pymatgen
data_HfTaTiNbWC5
_symmetry_space_group_name_H-M   'P 1'
_cell_length_a   7.00100000
_cell_length_b   4.39700000
_cell_length_c   6.99700000
_cell_angle_alpha   90.00000000
_cell_angle_beta   90.00000000
_cell_angle_gamma   90.00000000
_symmetry_Int_Tables_number   1
_chemical_formula_structural   HfTaTiNbWC5
_chemical_formula_sum   'Hf2 Ta2 Ti2 Nb2 W2 C10'
_cell_volume   215.39142881
_cell_formula_units_Z   2
loop_
 _symmetry_equiv_pos_site_id
 _symmetry_equiv_pos_as_xyz
  1  'x, y, z'
loop_
 _atom_site_type_symbol
 _atom_site_label
 _atom_site_symmetry_multiplicity
 _atom_site_fract_x
 _atom_site_fract_y
 _atom_site_fract_z
 _atom_site_occupancy
  C  C0  1  0.70481942  0.00000000  0.90439573  1
  C  C1  1  0.49718616  0.00000000  0.49251059  1
  C  C2  1  0.59843480  0.50000000  0.19714616  1
  C  C3  1  0.90016440  0.00000000  0.29786853  1
  C  C4  1  0.00378941  0.50000000  0.00786847  1
  C  C5  1  0.30232802  0.00000000  0.10782902  1
  C  C6  1  0.40342899  0.50000000  0.80300435  1
  C  C7  1  0.79723612  0.50000000  0.59894206  1
  C  C8  1  0.09605359  0.00000000  0.69962087  1
  C  C9  1  0.19505300  0.50000000  0.39198715  1
  Hf  Hf10  1  0.40167077  0.00000000  0.80473004  1
  Hf  Hf11  1  0.10069572  0.50000000  0.69843869  1
  Nb  Nb12  1  0.50194884  0.50000000  0.49291991  1
  Nb  Nb13  1  0.79617450  0.00000000  0.59218141  1
  Ta  Ta14  1  0.70002436  0.50000000  0.90436947  1
  Ta  Ta15  1  0.00275265  0.00000000  0.00490587  1
  Ti  Ti16  1  0.30548786  0.50000000  0.10530303  1
  Ti  Ti17  1  0.59692806  0.00000000  0.20056044  1
  W  W18  1  0.20826082  0.00000000  0.39865746  1
  W  W19  1  0.88756253  0.50000000  0.29676075  1
