# generated using pymatgen
data_HfTaTiNbWC5
_symmetry_space_group_name_H-M   'P 1'
_cell_length_a   7.04100000
_cell_length_b   4.43700000
_cell_length_c   7.03700000
_cell_angle_alpha   90.00000000
_cell_angle_beta   90.00000000
_cell_angle_gamma   90.00000000
_symmetry_Int_Tables_number   1
_chemical_formula_structural   HfTaTiNbWC5
_chemical_formula_sum   'Hf2 Ta2 Ti2 Nb2 W2 C10'
_cell_volume   219.84233293
_cell_formula_units_Z   2
loop_
 _symmetry_equiv_pos_site_id
 _symmetry_equiv_pos_as_xyz
  1  'x, y, z'
loop_
 _atom_site_type_symbol
 _atom_site_label
 _atom_site_symmetry_multiplicity
 _atom_site_fract_x
 _atom_site_fract_y
 _atom_site_fract_z
 _atom_site_occupancy
  C  C0  1  0.70484925  0.00000000  0.90416171  1
  C  C1  1  0.49723287  0.00000000  0.49263466  1
  C  C2  1  0.59872150  0.50000000  0.19711234  1
  C  C3  1  0.90057508  0.00000000  0.29790462  1
  C  C4  1  0.00314705  0.50000000  0.00786852  1
  C  C5  1  0.30184584  0.00000000  0.10803270  1
  C  C6  1  0.40357507  0.50000000  0.80285675  1
  C  C7  1  0.79726312  0.50000000  0.59874035  1
  C  C8  1  0.09607504  0.00000000  0.69963076  1
  C  C9  1  0.19516050  0.50000000  0.39220757  1
  Hf  Hf10  1  0.40160474  0.00000000  0.80505315  1
  Hf  Hf11  1  0.10072123  0.50000000  0.69842767  1
  Nb  Nb12  1  0.50235566  0.50000000  0.49264792  1
  Nb  Nb13  1  0.79624240  0.00000000  0.59155646  1
  Ta  Ta14  1  0.69965113  0.50000000  0.90450760  1
  Ta  Ta15  1  0.00219366  0.00000000  0.00526106  1
  Ti  Ti16  1  0.30547209  0.50000000  0.10578189  1
  Ti  Ti17  1  0.59677321  0.00000000  0.20063977  1
  W  W18  1  0.20936811  0.00000000  0.39857018  1
  W  W19  1  0.88717247  0.50000000  0.29640429  1
