# generated using pymatgen
data_HfTaTiNbWC5
_symmetry_space_group_name_H-M   'P 1'
_cell_length_a   7.02100000
_cell_length_b   4.41700000
_cell_length_c   7.01700000
_cell_angle_alpha   90.00000000
_cell_angle_beta   90.00000000
_cell_angle_gamma   90.00000000
_symmetry_Int_Tables_number   1
_chemical_formula_structural   HfTaTiNbWC5
_chemical_formula_sum   'Hf2 Ta2 Ti2 Nb2 W2 C10'
_cell_volume   217.60949887
_cell_formula_units_Z   2
loop_
 _symmetry_equiv_pos_site_id
 _symmetry_equiv_pos_as_xyz
  1  'x, y, z'
loop_
 _atom_site_type_symbol
 _atom_site_label
 _atom_site_symmetry_multiplicity
 _atom_site_fract_x
 _atom_site_fract_y
 _atom_site_fract_z
 _atom_site_occupancy
  C  C0  1  0.70483104  0.00000000  0.90425528  1
  C  C1  1  0.49719191  0.00000000  0.49257512  1
  C  C2  1  0.59859224  0.50000000  0.19712276  1
  C  C3  1  0.90037480  0.00000000  0.29787769  1
  C  C4  1  0.00346588  0.50000000  0.00788137  1
  C  C5  1  0.30209781  0.00000000  0.10792877  1
  C  C6  1  0.40349679  0.50000000  0.80292982  1
  C  C7  1  0.79725350  0.50000000  0.59883569  1
  C  C8  1  0.09605661  0.00000000  0.69963348  1
  C  C9  1  0.19510593  0.50000000  0.39210644  1
  Hf  Hf10  1  0.40163404  0.00000000  0.80489292  1
  Hf  Hf11  1  0.10070479  0.50000000  0.69845175  1
  Nb  Nb12  1  0.50213984  0.50000000  0.49279847  1
  Nb  Nb13  1  0.79620423  0.00000000  0.59186543  1
  Ta  Ta14  1  0.69984210  0.50000000  0.90441947  1
  Ta  Ta15  1  0.00248197  0.00000000  0.00507749  1
  Ti  Ti16  1  0.30550030  0.50000000  0.10556340  1
  Ti  Ti17  1  0.59686555  0.00000000  0.20059625  1
  W  W18  1  0.20881071  0.00000000  0.39862424  1
  W  W19  1  0.88734995  0.50000000  0.29656416  1
