# generated using pymatgen
data_HfTaTiNbWC5
_symmetry_space_group_name_H-M   'P 1'
_cell_length_a   7.10100000
_cell_length_b   4.49700000
_cell_length_c   7.09700000
_cell_angle_alpha   90.00000000
_cell_angle_beta   90.00000000
_cell_angle_gamma   90.00000000
_symmetry_Int_Tables_number   1
_chemical_formula_structural   HfTaTiNbWC5
_chemical_formula_sum   'Hf2 Ta2 Ti2 Nb2 W2 C10'
_cell_volume   226.62989911
_cell_formula_units_Z   2
loop_
 _symmetry_equiv_pos_site_id
 _symmetry_equiv_pos_as_xyz
  1  'x, y, z'
loop_
 _atom_site_type_symbol
 _atom_site_label
 _atom_site_symmetry_multiplicity
 _atom_site_fract_x
 _atom_site_fract_y
 _atom_site_fract_z
 _atom_site_occupancy
  C  C0  1  0.70487139  0.00000000  0.90389969  1
  C  C1  1  0.49738275  0.00000000  0.49285321  1
  C  C2  1  0.59904980  0.50000000  0.19711677  1
  C  C3  1  0.90114428  0.00000000  0.29794525  1
  C  C4  1  0.00209016  0.50000000  0.00786477  1
  C  C5  1  0.30112868  0.00000000  0.10835709  1
  C  C6  1  0.40380611  0.50000000  0.80261728  1
  C  C7  1  0.79735238  0.50000000  0.59840248  1
  C  C8  1  0.09612170  0.00000000  0.69973348  1
  C  C9  1  0.19545465  0.50000000  0.39248014  1
  Hf  Hf10  1  0.40149346  0.00000000  0.80556355  1
  Hf  Hf11  1  0.10071040  0.50000000  0.69834147  1
  Nb  Nb12  1  0.50309341  0.50000000  0.49229864  1
  Nb  Nb13  1  0.79618640  0.00000000  0.59052445  1
  Ta  Ta14  1  0.69906784  0.50000000  0.90466524  1
  Ta  Ta15  1  0.00122980  0.00000000  0.00593142  1
  Ti  Ti16  1  0.30560406  0.50000000  0.10664839  1
  Ti  Ti17  1  0.59650706  0.00000000  0.20066106  1
  W  W18  1  0.21148937  0.00000000  0.39845341  1
  W  W19  1  0.88621629  0.50000000  0.29564217  1
