# generated using pymatgen
data_HfTaTiNbWC5
_symmetry_space_group_name_H-M   'P 1'
_cell_length_a   7.16100000
_cell_length_b   4.55700000
_cell_length_c   7.15700000
_cell_angle_alpha   90.00000000
_cell_angle_beta   90.00000000
_cell_angle_gamma   90.00000000
_symmetry_Int_Tables_number   1
_chemical_formula_structural   HfTaTiNbWC5
_chemical_formula_sum   'Hf2 Ta2 Ti2 Nb2 W2 C10'
_cell_volume   233.55206929
_cell_formula_units_Z   2
loop_
 _symmetry_equiv_pos_site_id
 _symmetry_equiv_pos_as_xyz
  1  'x, y, z'
loop_
 _atom_site_type_symbol
 _atom_site_label
 _atom_site_symmetry_multiplicity
 _atom_site_fract_x
 _atom_site_fract_y
 _atom_site_fract_z
 _atom_site_occupancy
  C  C0  1  0.70486667  0.00000000  0.90365191  1
  C  C1  1  0.49735961  0.00000000  0.49290211  1
  C  C2  1  0.59966085  0.50000000  0.19699175  1
  C  C3  1  0.90150659  0.00000000  0.29787181  1
  C  C4  1  0.00090111  0.50000000  0.00801820  1
  C  C5  1  0.30042807  0.00000000  0.10879033  1
  C  C6  1  0.40405176  0.50000000  0.80248712  1
  C  C7  1  0.79734232  0.50000000  0.59792236  1
  C  C8  1  0.09623246  0.00000000  0.69961280  1
  C  C9  1  0.19588878  0.50000000  0.39287352  1
  Hf  Hf10  1  0.40135825  0.00000000  0.80629014  1
  Hf  Hf11  1  0.10079746  0.50000000  0.69822922  1
  Nb  Nb12  1  0.50383757  0.50000000  0.49190523  1
  Nb  Nb13  1  0.79640062  0.00000000  0.58917032  1
  Ta  Ta14  1  0.69829174  0.50000000  0.90509020  1
  Ta  Ta15  1  0.99993487  0.00000000  0.00669763  1
  Ti  Ti16  1  0.30567123  0.50000000  0.10762685  1
  Ti  Ti17  1  0.59630120  0.00000000  0.20087649  1
  W  W18  1  0.21385399  0.00000000  0.39819982  1
  W  W19  1  0.88531486  0.50000000  0.29479219  1
