# generated using pymatgen
data_HfTaTiNbWC5
_symmetry_space_group_name_H-M   'P 1'
_cell_length_a   7.12100000
_cell_length_b   4.51700000
_cell_length_c   7.11700000
_cell_angle_alpha   90.00000000
_cell_angle_beta   90.00000000
_cell_angle_gamma   90.00000000
_symmetry_Int_Tables_number   1
_chemical_formula_structural   HfTaTiNbWC5
_chemical_formula_sum   'Hf2 Ta2 Ti2 Nb2 W2 C10'
_cell_volume   228.92226917
_cell_formula_units_Z   2
loop_
 _symmetry_equiv_pos_site_id
 _symmetry_equiv_pos_as_xyz
  1  'x, y, z'
loop_
 _atom_site_type_symbol
 _atom_site_label
 _atom_site_symmetry_multiplicity
 _atom_site_fract_x
 _atom_site_fract_y
 _atom_site_fract_z
 _atom_site_occupancy
  C  C0  1  0.70487082  0.00000000  0.90380240  1
  C  C1  1  0.49738907  0.00000000  0.49290794  1
  C  C2  1  0.59922199  0.50000000  0.19706292  1
  C  C3  1  0.90132980  0.00000000  0.29794911  1
  C  C4  1  0.00168285  0.50000000  0.00790785  1
  C  C5  1  0.30090138  0.00000000  0.10847578  1
  C  C6  1  0.40388850  0.50000000  0.80254515  1
  C  C7  1  0.79734659  0.50000000  0.59826104  1
  C  C8  1  0.09615505  0.00000000  0.69977878  1
  C  C9  1  0.19561063  0.50000000  0.39262109  1
  Hf  Hf10  1  0.40148772  0.00000000  0.80576856  1
  Hf  Hf11  1  0.10070895  0.50000000  0.69830339  1
  Nb  Nb12  1  0.50334657  0.50000000  0.49216717  1
  Nb  Nb13  1  0.79619745  0.00000000  0.59011078  1
  Ta  Ta14  1  0.69881622  0.50000000  0.90475861  1
  Ta  Ta15  1  0.00084444  0.00000000  0.00619419  1
  Ti  Ti16  1  0.30563460  0.50000000  0.10697724  1
  Ti  Ti17  1  0.59640198  0.00000000  0.20068010  1
  W  W18  1  0.21232223  0.00000000  0.39838744  1
  W  W19  1  0.88584323  0.50000000  0.29534045  1
