# generated using pymatgen
data_HfTaTiNbWC5
_symmetry_space_group_name_H-M   'P 1'
_cell_length_a   7.14100000
_cell_length_b   4.53700000
_cell_length_c   7.13700000
_cell_angle_alpha   90.00000000
_cell_angle_beta   90.00000000
_cell_angle_gamma   90.00000000
_symmetry_Int_Tables_number   1
_chemical_formula_structural   HfTaTiNbWC5
_chemical_formula_sum   'Hf2 Ta2 Ti2 Nb2 W2 C10'
_cell_volume   231.22964323
_cell_formula_units_Z   2
loop_
 _symmetry_equiv_pos_site_id
 _symmetry_equiv_pos_as_xyz
  1  'x, y, z'
loop_
 _atom_site_type_symbol
 _atom_site_label
 _atom_site_symmetry_multiplicity
 _atom_site_fract_x
 _atom_site_fract_y
 _atom_site_fract_z
 _atom_site_occupancy
  C  C0  1  0.70486868  0.00000000  0.90374304  1
  C  C1  1  0.49743898  0.00000000  0.49294664  1
  C  C2  1  0.59935890  0.50000000  0.19704068  1
  C  C3  1  0.90143881  0.00000000  0.29793260  1
  C  C4  1  0.00129729  0.50000000  0.00795172  1
  C  C5  1  0.30064885  0.00000000  0.10864151  1
  C  C6  1  0.40397280  0.50000000  0.80249590  1
  C  C7  1  0.79735949  0.50000000  0.59810004  1
  C  C8  1  0.09620472  0.00000000  0.69973796  1
  C  C9  1  0.19573490  0.50000000  0.39271828  1
  Hf  Hf10  1  0.40143186  0.00000000  0.80600733  1
  Hf  Hf11  1  0.10072162  0.50000000  0.69824641  1
  Nb  Nb12  1  0.50360778  0.50000000  0.49204259  1
  Nb  Nb13  1  0.79622001  0.00000000  0.58966779  1
  Ta  Ta14  1  0.69858033  0.50000000  0.90484270  1
  Ta  Ta15  1  0.00042885  0.00000000  0.00646337  1
  Ti  Ti16  1  0.30572816  0.50000000  0.10734145  1
  Ti  Ti17  1  0.59634420  0.00000000  0.20072709  1
  W  W18  1  0.21312217  0.00000000  0.39830168  1
  W  W19  1  0.88549164  0.50000000  0.29505121  1
