# generated using pymatgen
data_HfTaTiNbMoC5
_symmetry_space_group_name_H-M   'P 1'
_cell_length_a   7.11900000
_cell_length_b   4.52200000
_cell_length_c   7.11800000
_cell_angle_alpha   90.00000000
_cell_angle_beta   89.89999998
_cell_angle_gamma   90.00000000
_symmetry_Int_Tables_number   1
_chemical_formula_structural   HfTaTiNbMoC5
_chemical_formula_sum   'Hf2 Ta2 Ti2 Nb2 Mo2 C10'
_cell_volume   229.14314696
_cell_formula_units_Z   2
loop_
 _symmetry_equiv_pos_site_id
 _symmetry_equiv_pos_as_xyz
  1  'x, y, z'
loop_
 _atom_site_type_symbol
 _atom_site_label
 _atom_site_symmetry_multiplicity
 _atom_site_fract_x
 _atom_site_fract_y
 _atom_site_fract_z
 _atom_site_occupancy
  C  C0  1  0.69877041  0.00000000  0.89672083  1
  C  C1  1  0.49543287  0.00000000  0.50456102  1
  C  C2  1  0.59533372  0.50000000  0.20009368  1
  C  C3  1  0.90647698  0.00000000  0.30134582  1
  C  C4  1  0.00015491  0.50000000  0.99441245  1
  C  C5  1  0.29360973  0.00000000  0.10122532  1
  C  C6  1  0.40325399  0.50000000  0.79769167  1
  C  C7  1  0.79760215  0.50000000  0.60404816  1
  C  C8  1  0.10399367  0.00000000  0.69947144  1
  C  C9  1  0.20458556  0.50000000  0.40110580  1
  Hf  Hf10  1  0.59354719  0.00000000  0.20072777  1
  Hf  Hf11  1  0.90069089  0.50000000  0.29965546  1
  Mo  Mo12  1  0.29394511  0.50000000  0.11088705  1
  Mo  Mo13  1  0.00543526  0.00000000  0.01023772  1
  Nb  Nb14  1  0.80787415  0.00000000  0.60012546  1
  Nb  Nb15  1  0.10898059  0.50000000  0.69379681  1
  Ta  Ta16  1  0.39486215  0.00000000  0.79337038  1
  Ta  Ta17  1  0.69496557  0.50000000  0.89681728  1
  Ti  Ti18  1  0.49839807  0.50000000  0.49626202  1
  Ti  Ti19  1  0.20208705  0.00000000  0.39744383  1
