# generated using pymatgen
data_HfTaTiNbMoC5
_symmetry_space_group_name_H-M   'P 1'
_cell_length_a   6.97900000
_cell_length_b   4.38200000
_cell_length_c   6.97800000
_cell_angle_alpha   90.00000000
_cell_angle_beta   89.90000001
_cell_angle_gamma   90.00000000
_symmetry_Int_Tables_number   1
_chemical_formula_structural   HfTaTiNbMoC5
_chemical_formula_sum   'Hf2 Ta2 Ti2 Nb2 Mo2 C10'
_cell_volume   213.40071740
_cell_formula_units_Z   2
loop_
 _symmetry_equiv_pos_site_id
 _symmetry_equiv_pos_as_xyz
  1  'x, y, z'
loop_
 _atom_site_type_symbol
 _atom_site_label
 _atom_site_symmetry_multiplicity
 _atom_site_fract_x
 _atom_site_fract_y
 _atom_site_fract_z
 _atom_site_occupancy
  C  C0  1  0.69914278  0.00000000  0.89762013  1
  C  C1  1  0.49527690  0.00000000  0.50442410  1
  C  C2  1  0.59543605  0.50000000  0.20162362  1
  C  C3  1  0.90690184  0.00000000  0.30114116  1
  C  C4  1  0.00022567  0.50000000  0.99365102  1
  C  C5  1  0.29367585  0.00000000  0.10236622  1
  C  C6  1  0.40289636  0.50000000  0.79762718  1
  C  C7  1  0.79678242  0.50000000  0.60307665  1
  C  C8  1  0.10347049  0.00000000  0.69803671  1
  C  C9  1  0.20570565  0.50000000  0.40107539  1
  Hf  Hf10  1  0.59480545  0.00000000  0.20183687  1
  Hf  Hf11  1  0.90187186  0.50000000  0.29900620  1
  Mo  Mo12  1  0.29580308  0.50000000  0.10729163  1
  Mo  Mo13  1  0.00267378  0.00000000  0.00556319  1
  Nb  Nb14  1  0.80577815  0.00000000  0.59962573  1
  Nb  Nb15  1  0.10712918  0.50000000  0.69456205  1
  Ta  Ta16  1  0.39520548  0.00000000  0.79705032  1
  Ta  Ta17  1  0.69611533  0.50000000  0.89843542  1
  Ti  Ti18  1  0.49859013  0.50000000  0.49789160  1
  Ti  Ti19  1  0.20251354  0.00000000  0.39809482  1
