# generated using pymatgen
data_HfTaTiNbMoC5
_symmetry_space_group_name_H-M   'P 1'
_cell_length_a   7.13900000
_cell_length_b   4.54200000
_cell_length_c   7.13800000
_cell_angle_alpha   90.00000000
_cell_angle_beta   89.90000003
_cell_angle_gamma   90.00000000
_symmetry_Int_Tables_number   1
_chemical_formula_structural   HfTaTiNbMoC5
_chemical_formula_sum   'Hf2 Ta2 Ti2 Nb2 Mo2 C10'
_cell_volume   231.45171018
_cell_formula_units_Z   2
loop_
 _symmetry_equiv_pos_site_id
 _symmetry_equiv_pos_as_xyz
  1  'x, y, z'
loop_
 _atom_site_type_symbol
 _atom_site_label
 _atom_site_symmetry_multiplicity
 _atom_site_fract_x
 _atom_site_fract_y
 _atom_site_fract_z
 _atom_site_occupancy
  C  C0  1  0.69865802  0.00000000  0.89653903  1
  C  C1  1  0.49540088  0.00000000  0.50455042  1
  C  C2  1  0.59530163  0.50000000  0.19986425  1
  C  C3  1  0.90646962  0.00000000  0.30136859  1
  C  C4  1  0.00019150  0.50000000  0.99462315  1
  C  C5  1  0.29357105  0.00000000  0.10108924  1
  C  C6  1  0.40333783  0.50000000  0.79759921  1
  C  C7  1  0.79770404  0.50000000  0.60419491  1
  C  C8  1  0.10406931  0.00000000  0.69968800  1
  C  C9  1  0.20439800  0.50000000  0.40111848  1
  Hf  Hf10  1  0.59326173  0.00000000  0.20049008  1
  Hf  Hf11  1  0.90042010  0.50000000  0.29978149  1
  Mo  Mo12  1  0.29360073  0.50000000  0.11169222  1
  Mo  Mo13  1  0.00606706  0.00000000  0.01125723  1
  Nb  Nb14  1  0.80828153  0.00000000  0.60019620  1
  Nb  Nb15  1  0.10932003  0.50000000  0.69361421  1
  Ta  Ta16  1  0.39485098  0.00000000  0.79255455  1
  Ta  Ta17  1  0.69472209  0.50000000  0.89646556  1
  Ti  Ti18  1  0.49835838  0.50000000  0.49595171  1
  Ti  Ti19  1  0.20201549  0.00000000  0.39736148  1
