# generated using pymatgen
data_HfTaTiNbMoC5
_symmetry_space_group_name_H-M   'P 1'
_cell_length_a   6.99900000
_cell_length_b   4.40200000
_cell_length_c   6.99800000
_cell_angle_alpha   90.00000000
_cell_angle_beta   89.89999998
_cell_angle_gamma   90.00000000
_symmetry_Int_Tables_number   1
_chemical_formula_structural   HfTaTiNbMoC5
_chemical_formula_sum   'Hf2 Ta2 Ti2 Nb2 Mo2 C10'
_cell_volume   215.60523837
_cell_formula_units_Z   2
loop_
 _symmetry_equiv_pos_site_id
 _symmetry_equiv_pos_as_xyz
  1  'x, y, z'
loop_
 _atom_site_type_symbol
 _atom_site_label
 _atom_site_symmetry_multiplicity
 _atom_site_fract_x
 _atom_site_fract_y
 _atom_site_fract_z
 _atom_site_occupancy
  C  C0  1  0.69915240  0.00000000  0.89749129  1
  C  C1  1  0.49534025  0.00000000  0.50442860  1
  C  C2  1  0.59542168  0.50000000  0.20137092  1
  C  C3  1  0.90679730  0.00000000  0.30120244  1
  C  C4  1  0.00018455  0.50000000  0.99373548  1
  C  C5  1  0.29370675  0.00000000  0.10214171  1
  C  C6  1  0.40294464  0.50000000  0.79767006  1
  C  C7  1  0.79690388  0.50000000  0.60322476  1
  C  C8  1  0.10353813  0.00000000  0.69831163  1
  C  C9  1  0.20552369  0.50000000  0.40109780  1
  Hf  Hf10  1  0.59464358  0.00000000  0.20166810  1
  Hf  Hf11  1  0.90168873  0.50000000  0.29912096  1
  Mo  Mo12  1  0.29549675  0.50000000  0.10781315  1
  Mo  Mo13  1  0.00302435  0.00000000  0.00623876  1
  Nb  Nb14  1  0.80605419  0.00000000  0.59967327  1
  Nb  Nb15  1  0.10739671  0.50000000  0.69444119  1
  Ta  Ta16  1  0.39518007  0.00000000  0.79654180  1
  Ta  Ta17  1  0.69595468  0.50000000  0.89822619  1
  Ti  Ti18  1  0.49858212  0.50000000  0.49761730  1
  Ti  Ti19  1  0.20246558  0.00000000  0.39798461  1
