# generated using pymatgen
data_HfTaTiNbWC5
_symmetry_space_group_name_H-M   'P 1'
_cell_length_a   7.18100000
_cell_length_b   4.57700000
_cell_length_c   7.17700000
_cell_angle_alpha   90.00000000
_cell_angle_beta   90.00000000
_cell_angle_gamma   90.00000000
_symmetry_Int_Tables_number   1
_chemical_formula_structural   HfTaTiNbWC5
_chemical_formula_sum   'Hf2 Ta2 Ti2 Nb2 W2 C10'
_cell_volume   235.88959535
_cell_formula_units_Z   2
loop_
 _symmetry_equiv_pos_site_id
 _symmetry_equiv_pos_as_xyz
  1  'x, y, z'
loop_
 _atom_site_type_symbol
 _atom_site_label
 _atom_site_symmetry_multiplicity
 _atom_site_fract_x
 _atom_site_fract_y
 _atom_site_fract_z
 _atom_site_occupancy
  C  C0  1  0.70486257  0.00000000  0.90358098  1
  C  C1  1  0.49740704  0.00000000  0.49295145  1
  C  C2  1  0.59981262  0.50000000  0.19696097  1
  C  C3  1  0.90156797  0.00000000  0.29782364  1
  C  C4  1  0.00042300  0.50000000  0.00805063  1
  C  C5  1  0.30019389  0.00000000  0.10898619  1
  C  C6  1  0.40414380  0.50000000  0.80245905  1
  C  C7  1  0.79735818  0.50000000  0.59772277  1
  C  C8  1  0.09628804  0.00000000  0.69954459  1
  C  C9  1  0.19611864  0.50000000  0.39299684  1
  Hf  Hf10  1  0.40129924  0.00000000  0.80660808  1
  Hf  Hf11  1  0.10080775  0.50000000  0.69817230  1
  Nb  Nb12  1  0.50414490  0.50000000  0.49181003  1
  Nb  Nb13  1  0.79641749  0.00000000  0.58860253  1
  Ta  Ta14  1  0.69799884  0.50000000  0.90516506  1
  Ta  Ta15  1  0.99937744  0.00000000  0.00700969  1
  Ti  Ti16  1  0.30578248  0.50000000  0.10805847  1
  Ti  Ti17  1  0.59627740  0.00000000  0.20094994  1
  W  W18  1  0.21486122  0.00000000  0.39814574  1
  W  W19  1  0.88485750  0.50000000  0.29440104  1
