# generated using pymatgen
data_HfTaTiNbMoC5
_symmetry_space_group_name_H-M   'P 1'
_cell_length_a   7.03900000
_cell_length_b   4.44200000
_cell_length_c   7.03800000
_cell_angle_alpha   90.00000000
_cell_angle_beta   89.90000001
_cell_angle_gamma   90.00000000
_symmetry_Int_Tables_number   1
_chemical_formula_structural   HfTaTiNbMoC5
_chemical_formula_sum   'Hf2 Ta2 Ti2 Nb2 Mo2 C10'
_cell_volume   220.05848586
_cell_formula_units_Z   2
loop_
 _symmetry_equiv_pos_site_id
 _symmetry_equiv_pos_as_xyz
  1  'x, y, z'
loop_
 _atom_site_type_symbol
 _atom_site_label
 _atom_site_symmetry_multiplicity
 _atom_site_fract_x
 _atom_site_fract_y
 _atom_site_fract_z
 _atom_site_occupancy
  C  C0  1  0.69904195  0.00000000  0.89730515  1
  C  C1  1  0.49542502  0.00000000  0.50448391  1
  C  C2  1  0.59539254  0.50000000  0.20097401  1
  C  C3  1  0.90665279  0.00000000  0.30127402  1
  C  C4  1  0.00012660  0.50000000  0.99389429  1
  C  C5  1  0.29368474  0.00000000  0.10182404  1
  C  C6  1  0.40305358  0.50000000  0.79770186  1
  C  C7  1  0.79716928  0.50000000  0.60351775  1
  C  C8  1  0.10370623  0.00000000  0.69866350  1
  C  C9  1  0.20522027  0.50000000  0.40108825  1
  Hf  Hf10  1  0.59433874  0.00000000  0.20141020  1
  Hf  Hf11  1  0.90141384  0.50000000  0.29928961  1
  Mo  Mo12  1  0.29502114  0.50000000  0.10859911  1
  Mo  Mo13  1  0.00370419  0.00000000  0.00724397  1
  Nb  Nb14  1  0.80659968  0.00000000  0.59990637  1
  Nb  Nb15  1  0.10788832  0.50000000  0.69430602  1
  Ta  Ta16  1  0.39507969  0.00000000  0.79565206  1
  Ta  Ta17  1  0.69562939  0.50000000  0.89784787  1
  Ti  Ti18  1  0.49852982  0.50000000  0.49720614  1
  Ti  Ti19  1  0.20232218  0.00000000  0.39781190  1
