# generated using pymatgen
data_HfTaTiNbMoC5
_symmetry_space_group_name_H-M   'P 1'
_cell_length_a   7.07900000
_cell_length_b   4.48200000
_cell_length_c   7.07800000
_cell_angle_alpha   90.00000000
_cell_angle_beta   89.90000003
_cell_angle_gamma   90.00000000
_symmetry_Int_Tables_number   1
_chemical_formula_structural   HfTaTiNbMoC5
_chemical_formula_sum   'Hf2 Ta2 Ti2 Nb2 Mo2 C10'
_cell_volume   224.57099406
_cell_formula_units_Z   2
loop_
 _symmetry_equiv_pos_site_id
 _symmetry_equiv_pos_as_xyz
  1  'x, y, z'
loop_
 _atom_site_type_symbol
 _atom_site_label
 _atom_site_symmetry_multiplicity
 _atom_site_fract_x
 _atom_site_fract_y
 _atom_site_fract_z
 _atom_site_occupancy
  C  C0  1  0.69891637  0.00000000  0.89703906  1
  C  C1  1  0.49544940  0.00000000  0.50453964  1
  C  C2  1  0.59538136  0.50000000  0.20054521  1
  C  C3  1  0.90653570  0.00000000  0.30130734  1
  C  C4  1  0.00011782  0.50000000  0.99411131  1
  C  C5  1  0.29365050  0.00000000  0.10152568  1
  C  C6  1  0.40314265  0.50000000  0.79775226  1
  C  C7  1  0.79740124  0.50000000  0.60377481  1
  C  C8  1  0.10384238  0.00000000  0.69904699  1
  C  C9  1  0.20493808  0.50000000  0.40109718  1
  Hf  Hf10  1  0.59399832  0.00000000  0.20111597  1
  Hf  Hf11  1  0.90112264  0.50000000  0.29944993  1
  Mo  Mo12  1  0.29454800  0.50000000  0.10954385  1
  Mo  Mo13  1  0.00442788  0.00000000  0.00851574  1
  Nb  Nb14  1  0.80716275  0.00000000  0.59999866  1
  Nb  Nb15  1  0.10837835  0.50000000  0.69411596  1
  Ta  Ta16  1  0.39495236  0.00000000  0.79468834  1
  Ta  Ta17  1  0.69536217  0.50000000  0.89740575  1
  Ti  Ti18  1  0.49845917  0.50000000  0.49679236  1
  Ti  Ti19  1  0.20221287  0.00000000  0.39763396  1
