# generated using pymatgen
data_HfTaTiNbMoC5
_symmetry_space_group_name_H-M   'P 1'
_cell_length_a   7.09900000
_cell_length_b   4.50200000
_cell_length_c   7.09800000
_cell_angle_alpha   90.00000000
_cell_angle_beta   89.90000001
_cell_angle_gamma   90.00000000
_symmetry_Int_Tables_number   1
_chemical_formula_structural   HfTaTiNbMoC5
_chemical_formula_sum   'Hf2 Ta2 Ti2 Nb2 Mo2 C10'
_cell_volume   226.84959092
_cell_formula_units_Z   2
loop_
 _symmetry_equiv_pos_site_id
 _symmetry_equiv_pos_as_xyz
  1  'x, y, z'
loop_
 _atom_site_type_symbol
 _atom_site_label
 _atom_site_symmetry_multiplicity
 _atom_site_fract_x
 _atom_site_fract_y
 _atom_site_fract_z
 _atom_site_occupancy
  C  C0  1  0.69886393  0.00000000  0.89688342  1
  C  C1  1  0.49544965  0.00000000  0.50454465  1
  C  C2  1  0.59535363  0.50000000  0.20030422  1
  C  C3  1  0.90649495  0.00000000  0.30131927  1
  C  C4  1  0.00014107  0.50000000  0.99425682  1
  C  C5  1  0.29363732  0.00000000  0.10137484  1
  C  C6  1  0.40319842  0.50000000  0.79773528  1
  C  C7  1  0.79749083  0.50000000  0.60390217  1
  C  C8  1  0.10392233  0.00000000  0.69927724  1
  C  C9  1  0.20474284  0.50000000  0.40110919  1
  Hf  Hf10  1  0.59377144  0.00000000  0.20091739  1
  Hf  Hf11  1  0.90088473  0.50000000  0.29955029  1
  Mo  Mo12  1  0.29423978  0.50000000  0.11026583  1
  Mo  Mo13  1  0.00494319  0.00000000  0.00937232  1
  Nb  Nb14  1  0.80751186  0.00000000  0.60005415  1
  Nb  Nb15  1  0.10869280  0.50000000  0.69394457  1
  Ta  Ta16  1  0.39492936  0.00000000  0.79402360  1
  Ta  Ta17  1  0.69516405  0.50000000  0.89709690  1
  Ti  Ti18  1  0.49842303  0.50000000  0.49651549  1
  Ti  Ti19  1  0.20214479  0.00000000  0.39755239  1
