# generated using pymatgen
data_HfTaTiNbMoC5
_symmetry_space_group_name_H-M   'P 1'
_cell_length_a   7.15900000
_cell_length_b   4.56200000
_cell_length_c   7.15800000
_cell_angle_alpha   90.00000000
_cell_angle_beta   89.90000000
_cell_angle_gamma   90.00000000
_symmetry_Int_Tables_number   1
_chemical_formula_structural   HfTaTiNbMoC5
_chemical_formula_sum   'Hf2 Ta2 Ti2 Nb2 Mo2 C10'
_cell_volume   233.77532858
_cell_formula_units_Z   2
loop_
 _symmetry_equiv_pos_site_id
 _symmetry_equiv_pos_as_xyz
  1  'x, y, z'
loop_
 _atom_site_type_symbol
 _atom_site_label
 _atom_site_symmetry_multiplicity
 _atom_site_fract_x
 _atom_site_fract_y
 _atom_site_fract_z
 _atom_site_occupancy
  C  C0  1  0.69850931  0.00000000  0.89632773  1
  C  C1  1  0.49538112  0.00000000  0.50451384  1
  C  C2  1  0.59526440  0.50000000  0.19961675  1
  C  C3  1  0.90645076  0.00000000  0.30135777  1
  C  C4  1  0.00028069  0.50000000  0.99488363  1
  C  C5  1  0.29346114  0.00000000  0.10096795  1
  C  C6  1  0.40342748  0.50000000  0.79749051  1
  C  C7  1  0.79780209  0.50000000  0.60435258  1
  C  C8  1  0.10414988  0.00000000  0.69990455  1
  C  C9  1  0.20421018  0.50000000  0.40112514  1
  Hf  Hf10  1  0.59288055  0.00000000  0.20021297  1
  Hf  Hf11  1  0.90006476  0.50000000  0.29992280  1
  Mo  Mo12  1  0.29316035  0.50000000  0.11277356  1
  Mo  Mo13  1  0.00673153  0.00000000  0.01251303  1
  Nb  Nb14  1  0.80875175  0.00000000  0.60022331  1
  Nb  Nb15  1  0.10975164  0.50000000  0.69322728  1
  Ta  Ta16  1  0.39487106  0.00000000  0.79156310  1
  Ta  Ta17  1  0.69448966  0.50000000  0.89608260  1
  Ti  Ti18  1  0.49841561  0.50000000  0.49564919  1
  Ti  Ti19  1  0.20194604  0.00000000  0.39729170  1
