# generated using pymatgen
data_HfTaTiNbVC5
_symmetry_space_group_name_H-M   'P 1'
_cell_length_a   6.92100000
_cell_length_b   4.36300000
_cell_length_c   6.92400000
_cell_angle_alpha   90.00000000
_cell_angle_beta   90.00000000
_cell_angle_gamma   90.00000000
_symmetry_Int_Tables_number   1
_chemical_formula_structural   HfTaTiNbVC5
_chemical_formula_sum   'Hf2 Ta2 Ti2 Nb2 V2 C10'
_cell_volume   209.07934045
_cell_formula_units_Z   2
loop_
 _symmetry_equiv_pos_site_id
 _symmetry_equiv_pos_as_xyz
  1  'x, y, z'
loop_
 _atom_site_type_symbol
 _atom_site_label
 _atom_site_symmetry_multiplicity
 _atom_site_fract_x
 _atom_site_fract_y
 _atom_site_fract_z
 _atom_site_occupancy
  C  C0  1  0.70789460  0.00000000  0.90969412  1
  C  C1  1  0.49613253  0.00000000  0.49639375  1
  C  C2  1  0.59895889  0.50000000  0.18659441  1
  C  C3  1  0.89692146  0.00000000  0.28843258  1
  C  C4  1  0.99758627  0.50000000  0.00034285  1
  C  C5  1  0.29659795  0.00000000  0.10015439  1
  C  C6  1  0.40589134  0.50000000  0.81012287  1
  C  C7  1  0.80414438  0.50000000  0.60641981  1
  C  C8  1  0.10271069  0.00000000  0.70760688  1
  C  C9  1  0.19637878  0.50000000  0.39411386  1
  Hf  Hf10  1  0.49953116  0.50000000  0.49728496  1
  Hf  Hf11  1  0.80081043  0.00000000  0.60269329  1
  Nb  Nb12  1  0.40363310  0.00000000  0.81012911  1
  Nb  Nb13  1  0.10014889  0.50000000  0.71082004  1
  Ta  Ta14  1  0.19831554  0.00000000  0.39314755  1
  Ta  Ta15  1  0.89812920  0.50000000  0.28960203  1
  Ti  Ti16  1  0.30177840  0.50000000  0.09837996  1
  Ti  Ti17  1  0.60189469  0.00000000  0.19534078  1
  V  V18  1  0.69815156  0.50000000  0.90424380  1
  V  V19  1  0.99439012  0.00000000  0.99848296  1
