# generated using pymatgen
data_HfTaTiNbMoC5
_symmetry_space_group_name_H-M   'P 1'
_cell_length_a   7.17900000
_cell_length_b   4.58200000
_cell_length_c   7.17800000
_cell_angle_alpha   90.00000000
_cell_angle_beta   89.89999998
_cell_angle_gamma   90.00000000
_symmetry_Int_Tables_number   1
_chemical_formula_structural   HfTaTiNbMoC5
_chemical_formula_sum   'Hf2 Ta2 Ti2 Nb2 Mo2 C10'
_cell_volume   236.11405015
_cell_formula_units_Z   2
loop_
 _symmetry_equiv_pos_site_id
 _symmetry_equiv_pos_as_xyz
  1  'x, y, z'
loop_
 _atom_site_type_symbol
 _atom_site_label
 _atom_site_symmetry_multiplicity
 _atom_site_fract_x
 _atom_site_fract_y
 _atom_site_fract_z
 _atom_site_occupancy
  C  C0  1  0.69831199  0.00000000  0.89609546  1
  C  C1  1  0.49533500  0.00000000  0.50447971  1
  C  C2  1  0.59521885  0.50000000  0.19939435  1
  C  C3  1  0.90648701  0.00000000  0.30133799  1
  C  C4  1  0.00037235  0.50000000  0.99514874  1
  C  C5  1  0.29332976  0.00000000  0.10089600  1
  C  C6  1  0.40352014  0.50000000  0.79731914  1
  C  C7  1  0.79791136  0.50000000  0.60451635  1
  C  C8  1  0.10424546  0.00000000  0.70008836  1
  C  C9  1  0.20403954  0.50000000  0.40112689  1
  Hf  Hf10  1  0.59251195  0.00000000  0.19993712  1
  Hf  Hf11  1  0.89974286  0.50000000  0.30004655  1
  Mo  Mo12  1  0.29278520  0.50000000  0.11379344  1
  Mo  Mo13  1  0.00745769  0.00000000  0.01366939  1
  Nb  Nb14  1  0.80921983  0.00000000  0.60032792  1
  Nb  Nb15  1  0.11014931  0.50000000  0.69299671  1
  Ta  Ta16  1  0.39489759  0.00000000  0.79058219  1
  Ta  Ta17  1  0.69417678  0.50000000  0.89565400  1
  Ti  Ti18  1  0.49843108  0.50000000  0.49532161  1
  Ti  Ti19  1  0.20185627  0.00000000  0.39726806  1
