# generated using pymatgen
data_HfTaTiNbVC5
_symmetry_space_group_name_H-M   'P 1'
_cell_length_a   7.04100000
_cell_length_b   4.48300000
_cell_length_c   7.04400000
_cell_angle_alpha   90.00000000
_cell_angle_beta   90.00000000
_cell_angle_gamma   90.00000000
_symmetry_Int_Tables_number   1
_chemical_formula_structural   HfTaTiNbVC5
_chemical_formula_sum   'Hf2 Ta2 Ti2 Nb2 V2 C10'
_cell_volume   222.34247233
_cell_formula_units_Z   2
loop_
 _symmetry_equiv_pos_site_id
 _symmetry_equiv_pos_as_xyz
  1  'x, y, z'
loop_
 _atom_site_type_symbol
 _atom_site_label
 _atom_site_symmetry_multiplicity
 _atom_site_fract_x
 _atom_site_fract_y
 _atom_site_fract_z
 _atom_site_occupancy
  C  C0  1  0.70663996  0.00000000  0.90923752  1
  C  C1  1  0.49576954  0.00000000  0.49672923  1
  C  C2  1  0.60078207  0.50000000  0.18725453  1
  C  C3  1  0.89849023  0.00000000  0.28871518  1
  C  C4  1  0.99707264  0.50000000  0.00039806  1
  C  C5  1  0.29783552  0.00000000  0.10063131  1
  C  C6  1  0.40428877  0.50000000  0.81015652  1
  C  C7  1  0.80467650  0.50000000  0.60551434  1
  C  C8  1  0.10203707  0.00000000  0.70719059  1
  C  C9  1  0.19679113  0.50000000  0.39385115  1
  Hf  Hf10  1  0.49944670  0.50000000  0.49782492  1
  Hf  Hf11  1  0.80054772  0.00000000  0.60246287  1
  Nb  Nb12  1  0.40205338  0.00000000  0.81147625  1
  Nb  Nb13  1  0.09776996  0.50000000  0.71201197  1
  Ta  Ta14  1  0.20002857  0.00000000  0.39096222  1
  Ta  Ta15  1  0.90014769  0.50000000  0.28821138  1
  Ti  Ti16  1  0.30391053  0.50000000  0.09809170  1
  Ti  Ti17  1  0.60423485  0.00000000  0.19552757  1
  V  V18  1  0.69646812  0.50000000  0.90592714  1
  V  V19  1  0.99100904  0.00000000  0.99782555  1
