# generated using pymatgen
data_HfTaTiNbVC5
_symmetry_space_group_name_H-M   'P 1'
_cell_length_a   7.06100000
_cell_length_b   4.50300000
_cell_length_c   7.06400000
_cell_angle_alpha   90.00000000
_cell_angle_beta   90.00000000
_cell_angle_gamma   90.00000000
_symmetry_Int_Tables_number   1
_chemical_formula_structural   HfTaTiNbVC5
_chemical_formula_sum   'Hf2 Ta2 Ti2 Nb2 V2 C10'
_cell_volume   224.60470471
_cell_formula_units_Z   2
loop_
 _symmetry_equiv_pos_site_id
 _symmetry_equiv_pos_as_xyz
  1  'x, y, z'
loop_
 _atom_site_type_symbol
 _atom_site_label
 _atom_site_symmetry_multiplicity
 _atom_site_fract_x
 _atom_site_fract_y
 _atom_site_fract_z
 _atom_site_occupancy
  C  C0  1  0.70645236  0.00000000  0.90917564  1
  C  C1  1  0.49570914  0.00000000  0.49674541  1
  C  C2  1  0.60111480  0.50000000  0.18734364  1
  C  C3  1  0.89876625  0.00000000  0.28873609  1
  C  C4  1  0.99696500  0.50000000  0.00041089  1
  C  C5  1  0.29808834  0.00000000  0.10071323  1
  C  C6  1  0.40399610  0.50000000  0.81019026  1
  C  C7  1  0.80476099  0.50000000  0.60539183  1
  C  C8  1  0.10187964  0.00000000  0.70718906  1
  C  C9  1  0.19688248  0.50000000  0.39375800  1
  Hf  Hf10  1  0.49942097  0.50000000  0.49790865  1
  Hf  Hf11  1  0.80050688  0.00000000  0.60240919  1
  Nb  Nb12  1  0.40174218  0.00000000  0.81177199  1
  Nb  Nb13  1  0.09729694  0.50000000  0.71229777  1
  Ta  Ta14  1  0.20036604  0.00000000  0.39050879  1
  Ta  Ta15  1  0.90053791  0.50000000  0.28792457  1
  Ti  Ti16  1  0.30432854  0.50000000  0.09803180  1
  Ti  Ti17  1  0.60469786  0.00000000  0.19554607  1
  V  V18  1  0.69616106  0.50000000  0.90625687  1
  V  V19  1  0.99032652  0.00000000  0.99769020  1
