# generated using pymatgen
data_HfTaTiNbVC5
_symmetry_space_group_name_H-M   'P 1'
_cell_length_a   6.41000000
_cell_length_b   4.38300000
_cell_length_c   6.94400000
_cell_angle_alpha   90.00000000
_cell_angle_beta   90.00000000
_cell_angle_gamma   90.00000000
_symmetry_Int_Tables_number   1
_chemical_formula_structural   HfTaTiNbVC5
_chemical_formula_sum   'Hf2 Ta2 Ti2 Nb2 V2 C10'
_cell_volume   195.09188832
_cell_formula_units_Z   2
loop_
 _symmetry_equiv_pos_site_id
 _symmetry_equiv_pos_as_xyz
  1  'x, y, z'
loop_
 _atom_site_type_symbol
 _atom_site_label
 _atom_site_symmetry_multiplicity
 _atom_site_fract_x
 _atom_site_fract_y
 _atom_site_fract_z
 _atom_site_occupancy
  C  C0  1  0.71164843  0.00000000  0.91051530  1
  C  C1  1  0.49633392  0.00000000  0.49653023  1
  C  C2  1  0.59368951  0.50000000  0.18592090  1
  C  C3  1  0.89212351  0.00000000  0.28740538  1
  C  C4  1  0.99674104  0.50000000  0.00020996  1
  C  C5  1  0.29521148  0.00000000  0.09959878  1
  C  C6  1  0.41129061  0.50000000  0.81090785  1
  C  C7  1  0.80491252  0.50000000  0.60561503  1
  C  C8  1  0.10545390  0.00000000  0.70870824  1
  C  C9  1  0.19464781  0.50000000  0.39416365  1
  Hf  Hf10  1  0.49901757  0.50000000  0.49779015  1
  Hf  Hf11  1  0.80158552  0.00000000  0.60314876  1
  Nb  Nb12  1  0.40602100  0.00000000  0.81228329  1
  Nb  Nb13  1  0.10258372  0.50000000  0.71247790  1
  Ta  Ta14  1  0.19754801  0.00000000  0.39108594  1
  Ta  Ta15  1  0.89525794  0.50000000  0.28902232  1
  Ti  Ti16  1  0.29884314  0.50000000  0.09618016  1
  Ti  Ti17  1  0.59763541  0.00000000  0.19316123  1
  V  V18  1  0.70063278  0.50000000  0.90470322  1
  V  V19  1  0.99882217  0.00000000  0.00057169  1
