# generated using pymatgen
data_HfTaTiNbVC5
_symmetry_space_group_name_H-M   'P 1'
_cell_length_a   6.98100000
_cell_length_b   4.42300000
_cell_length_c   6.98400000
_cell_angle_alpha   90.00000000
_cell_angle_beta   90.00000000
_cell_angle_gamma   90.00000000
_symmetry_Int_Tables_number   1
_chemical_formula_structural   HfTaTiNbVC5
_chemical_formula_sum   'Hf2 Ta2 Ti2 Nb2 V2 C10'
_cell_volume   215.64470959
_cell_formula_units_Z   2
loop_
 _symmetry_equiv_pos_site_id
 _symmetry_equiv_pos_as_xyz
  1  'x, y, z'
loop_
 _atom_site_type_symbol
 _atom_site_label
 _atom_site_symmetry_multiplicity
 _atom_site_fract_x
 _atom_site_fract_y
 _atom_site_fract_z
 _atom_site_occupancy
  C  C0  1  0.70721623  0.00000000  0.90952331  1
  C  C1  1  0.49595593  0.00000000  0.49663959  1
  C  C2  1  0.59981740  0.50000000  0.18694909  1
  C  C3  1  0.89774256  0.00000000  0.28860376  1
  C  C4  1  0.99746725  0.50000000  0.00038742  1
  C  C5  1  0.29705432  0.00000000  0.10033867  1
  C  C6  1  0.40518115  0.50000000  0.81011774  1
  C  C7  1  0.80442274  0.50000000  0.60587306  1
  C  C8  1  0.10240754  0.00000000  0.70731012  1
  C  C9  1  0.19654173  0.50000000  0.39407506  1
  Hf  Hf10  1  0.49956465  0.50000000  0.49744797  1
  Hf  Hf11  1  0.80068732  0.00000000  0.60264301  1
  Nb  Nb12  1  0.40276517  0.00000000  0.81068396  1
  Nb  Nb13  1  0.09921512  0.50000000  0.71146304  1
  Ta  Ta14  1  0.19910934  0.00000000  0.39222925  1
  Ta  Ta15  1  0.89911260  0.50000000  0.28887281  1
  Ti  Ti16  1  0.30276391  0.50000000  0.09827514  1
  Ti  Ti17  1  0.60287275  0.00000000  0.19531427  1
  V  V18  1  0.69688392  0.50000000  0.90494978  1
  V  V19  1  0.99321839  0.00000000  0.99830293  1
