# generated using pymatgen
data_HfTaTiNbVC5
_symmetry_space_group_name_H-M   'P 1'
_cell_length_a   6.96100000
_cell_length_b   4.40300000
_cell_length_c   6.96400000
_cell_angle_alpha   90.00000000
_cell_angle_beta   90.00000000
_cell_angle_gamma   90.00000000
_symmetry_Int_Tables_number   1
_chemical_formula_structural   HfTaTiNbVC5
_chemical_formula_sum   'Hf2 Ta2 Ti2 Nb2 V2 C10'
_cell_volume   213.44160681
_cell_formula_units_Z   2
loop_
 _symmetry_equiv_pos_site_id
 _symmetry_equiv_pos_as_xyz
  1  'x, y, z'
loop_
 _atom_site_type_symbol
 _atom_site_label
 _atom_site_symmetry_multiplicity
 _atom_site_fract_x
 _atom_site_fract_y
 _atom_site_fract_z
 _atom_site_occupancy
  C  C0  1  0.70745124  0.00000000  0.90951180  1
  C  C1  1  0.49599802  0.00000000  0.49654249  1
  C  C2  1  0.59956960  0.50000000  0.18680878  1
  C  C3  1  0.89743507  0.00000000  0.28854421  1
  C  C4  1  0.99744007  0.50000000  0.00036732  1
  C  C5  1  0.29697987  0.00000000  0.10032542  1
  C  C6  1  0.40534964  0.50000000  0.81011770  1
  C  C7  1  0.80430107  0.50000000  0.60609456  1
  C  C8  1  0.10249747  0.00000000  0.70742454  1
  C  C9  1  0.19650583  0.50000000  0.39407714  1
  Hf  Hf10  1  0.49949536  0.50000000  0.49745879  1
  Hf  Hf11  1  0.80069774  0.00000000  0.60261761  1
  Nb  Nb12  1  0.40312074  0.00000000  0.81052664  1
  Nb  Nb13  1  0.09941139  0.50000000  0.71116473  1
  Ta  Ta14  1  0.19883705  0.00000000  0.39251211  1
  Ta  Ta15  1  0.89876989  0.50000000  0.28918952  1
  Ti  Ti16  1  0.30245839  0.50000000  0.09830225  1
  Ti  Ti17  1  0.60265975  0.00000000  0.19541392  1
  V  V18  1  0.69761830  0.50000000  0.90472536  1
  V  V19  1  0.99340349  0.00000000  0.99827512  1
