# generated using pymatgen
data_HfTaTiNbVC5
_symmetry_space_group_name_H-M   'P 1'
_cell_length_a   7.10100000
_cell_length_b   4.54300000
_cell_length_c   7.10400000
_cell_angle_alpha   90.00000000
_cell_angle_beta   90.00000000
_cell_angle_gamma   90.00000000
_symmetry_Int_Tables_number   1
_chemical_formula_structural   HfTaTiNbVC5
_chemical_formula_sum   'Hf2 Ta2 Ti2 Nb2 V2 C10'
_cell_volume   229.17392467
_cell_formula_units_Z   2
loop_
 _symmetry_equiv_pos_site_id
 _symmetry_equiv_pos_as_xyz
  1  'x, y, z'
loop_
 _atom_site_type_symbol
 _atom_site_label
 _atom_site_symmetry_multiplicity
 _atom_site_fract_x
 _atom_site_fract_y
 _atom_site_fract_z
 _atom_site_occupancy
  C  C0  1  0.70608006  0.00000000  0.90903963  1
  C  C1  1  0.49560583  0.00000000  0.49675326  1
  C  C2  1  0.60176643  0.50000000  0.18756547  1
  C  C3  1  0.89928051  0.00000000  0.28871125  1
  C  C4  1  0.99670688  0.50000000  0.00037737  1
  C  C5  1  0.29872978  0.00000000  0.10093951  1
  C  C6  1  0.40349117  0.50000000  0.81034038  1
  C  C7  1  0.80500305  0.50000000  0.60515423  1
  C  C8  1  0.10153144  0.00000000  0.70726826  1
  C  C9  1  0.19711310  0.50000000  0.39348274  1
  Hf  Hf10  1  0.49937600  0.50000000  0.49816636  1
  Hf  Hf11  1  0.80049874  0.00000000  0.60217559  1
  Nb  Nb12  1  0.40113980  0.00000000  0.81245759  1
  Nb  Nb13  1  0.09629380  0.50000000  0.71297480  1
  Ta  Ta14  1  0.20113856  0.00000000  0.38938255  1
  Ta  Ta15  1  0.90139993  0.50000000  0.28721279  1
  Ti  Ti16  1  0.30539322  0.50000000  0.09799106  1
  Ti  Ti17  1  0.60563427  0.00000000  0.19571286  1
  V  V18  1  0.69539941  0.50000000  0.90694758  1
  V  V19  1  0.98841802  0.00000000  0.99734669  1
