# generated using pymatgen
data_HfTaTiNbVC5
_symmetry_space_group_name_H-M   'P 1'
_cell_length_a   7.12100000
_cell_length_b   4.56300000
_cell_length_c   7.12400000
_cell_angle_alpha   90.00000000
_cell_angle_beta   90.00000000
_cell_angle_gamma   90.00000000
_symmetry_Int_Tables_number   1
_chemical_formula_structural   HfTaTiNbVC5
_chemical_formula_sum   'Hf2 Ta2 Ti2 Nb2 V2 C10'
_cell_volume   231.48100825
_cell_formula_units_Z   2
loop_
 _symmetry_equiv_pos_site_id
 _symmetry_equiv_pos_as_xyz
  1  'x, y, z'
loop_
 _atom_site_type_symbol
 _atom_site_label
 _atom_site_symmetry_multiplicity
 _atom_site_fract_x
 _atom_site_fract_y
 _atom_site_fract_z
 _atom_site_occupancy
  C  C0  1  0.70589119  0.00000000  0.90895903  1
  C  C1  1  0.49557137  0.00000000  0.49674503  1
  C  C2  1  0.60208628  0.50000000  0.18769032  1
  C  C3  1  0.89954576  0.00000000  0.28860383  1
  C  C4  1  0.99646974  0.50000000  0.00032011  1
  C  C5  1  0.29922925  0.00000000  0.10109969  1
  C  C6  1  0.40325422  0.50000000  0.81048682  1
  C  C7  1  0.80517362  0.50000000  0.60501272  1
  C  C8  1  0.10129987  0.00000000  0.70738736  1
  C  C9  1  0.19729260  0.50000000  0.39328305  1
  Hf  Hf10  1  0.49934913  0.50000000  0.49836541  1
  Hf  Hf11  1  0.80051011  0.00000000  0.60195196  1
  Nb  Nb12  1  0.40090495  0.00000000  0.81291607  1
  Nb  Nb13  1  0.09570262  0.50000000  0.71336048  1
  Ta  Ta14  1  0.20161964  0.00000000  0.38868795  1
  Ta  Ta15  1  0.90187299  0.50000000  0.28679117  1
  Ti  Ti16  1  0.30610032  0.50000000  0.09801556  1
  Ti  Ti17  1  0.60613471  0.00000000  0.19590295  1
  V  V18  1  0.69499048  0.50000000  0.90736206  1
  V  V19  1  0.98700116  0.00000000  0.99705841  1
