# generated using pymatgen
data_HfTaTiNbVC5
_symmetry_space_group_name_H-M   'P 1'
_cell_length_a   7.08100000
_cell_length_b   4.52300000
_cell_length_c   7.08400000
_cell_angle_alpha   90.00000000
_cell_angle_beta   90.00000000
_cell_angle_gamma   90.00000000
_symmetry_Int_Tables_number   1
_chemical_formula_structural   HfTaTiNbVC5
_chemical_formula_sum   'Hf2 Ta2 Ti2 Nb2 V2 C10'
_cell_volume   226.88183949
_cell_formula_units_Z   2
loop_
 _symmetry_equiv_pos_site_id
 _symmetry_equiv_pos_as_xyz
  1  'x, y, z'
loop_
 _atom_site_type_symbol
 _atom_site_label
 _atom_site_symmetry_multiplicity
 _atom_site_fract_x
 _atom_site_fract_y
 _atom_site_fract_z
 _atom_site_occupancy
  C  C0  1  0.70623769  0.00000000  0.90910274  1
  C  C1  1  0.49564006  0.00000000  0.49676214  1
  C  C2  1  0.60145488  0.50000000  0.18746777  1
  C  C3  1  0.89902599  0.00000000  0.28875780  1
  C  C4  1  0.99684214  0.50000000  0.00039531  1
  C  C5  1  0.29841441  0.00000000  0.10082357  1
  C  C6  1  0.40374237  0.50000000  0.81023081  1
  C  C7  1  0.80488534  0.50000000  0.60524677  1
  C  C8  1  0.10171415  0.00000000  0.70720203  1
  C  C9  1  0.19698869  0.50000000  0.39362841  1
  Hf  Hf10  1  0.49940740  0.50000000  0.49803134  1
  Hf  Hf11  1  0.80047662  0.00000000  0.60231354  1
  Nb  Nb12  1  0.40144900  0.00000000  0.81209780  1
  Nb  Nb13  1  0.09677781  0.50000000  0.71260239  1
  Ta  Ta14  1  0.20075510  0.00000000  0.38996655  1
  Ta  Ta15  1  0.90097061  0.50000000  0.28759710  1
  Ti  Ti16  1  0.30484586  0.50000000  0.09799326  1
  Ti  Ti17  1  0.60517461  0.00000000  0.19561837  1
  V  V18  1  0.69576902  0.50000000  0.90663242  1
  V  V19  1  0.98942823  0.00000000  0.99752985  1
