# generated using pymatgen
data_HfTaTiNbVC5
_symmetry_space_group_name_H-M   'P 1'
_cell_length_a   6.94100000
_cell_length_b   4.38300000
_cell_length_c   6.94400000
_cell_angle_alpha   90.00000000
_cell_angle_beta   90.00000000
_cell_angle_gamma   90.00000000
_symmetry_Int_Tables_number   1
_chemical_formula_structural   HfTaTiNbVC5
_chemical_formula_sum   'Hf2 Ta2 Ti2 Nb2 V2 C10'
_cell_volume   211.25316643
_cell_formula_units_Z   2
loop_
 _symmetry_equiv_pos_site_id
 _symmetry_equiv_pos_as_xyz
  1  'x, y, z'
loop_
 _atom_site_type_symbol
 _atom_site_label
 _atom_site_symmetry_multiplicity
 _atom_site_fract_x
 _atom_site_fract_y
 _atom_site_fract_z
 _atom_site_occupancy
  C  C0  1  0.70769314  0.00000000  0.90959218  1
  C  C1  1  0.49605299  0.00000000  0.49647210  1
  C  C2  1  0.59923700  0.50000000  0.18668096  1
  C  C3  1  0.89715314  0.00000000  0.28847721  1
  C  C4  1  0.99753807  0.50000000  0.00036804  1
  C  C5  1  0.29676155  0.00000000  0.10025158  1
  C  C6  1  0.40564080  0.50000000  0.81013792  1
  C  C7  1  0.80421931  0.50000000  0.60625010  1
  C  C8  1  0.10261863  0.00000000  0.70752065  1
  C  C9  1  0.19640778  0.50000000  0.39410772  1
  Hf  Hf10  1  0.49948653  0.50000000  0.49736711  1
  Hf  Hf11  1  0.80075930  0.00000000  0.60265683  1
  Nb  Nb12  1  0.40339097  0.00000000  0.81032913  1
  Nb  Nb13  1  0.09981765  0.50000000  0.71100026  1
  Ta  Ta14  1  0.19852765  0.00000000  0.39287327  1
  Ta  Ta15  1  0.89840752  0.50000000  0.28938619  1
  Ti  Ti16  1  0.30211256  0.50000000  0.09835723  1
  Ti  Ti17  1  0.60224495  0.00000000  0.19536726  1
  V  V18  1  0.69793570  0.50000000  0.90442706  1
  V  V19  1  0.99399473  0.00000000  0.99837720  1
