# generated using pymatgen
data_Ti31FeN32
_symmetry_space_group_name_H-M   'P 1'
_cell_length_a   18.42703133
_cell_length_b   9.33826859
_cell_length_c   4.22160183
_cell_angle_alpha   90.00142131
_cell_angle_beta   90.00210082
_cell_angle_gamma   98.23278489
_symmetry_Int_Tables_number   1
_chemical_formula_structural   Ti31FeN32
_chemical_formula_sum   'Ti31 Fe1 N32'
_cell_volume   718.95240714
_cell_formula_units_Z   1
loop_
 _symmetry_equiv_pos_site_id
 _symmetry_equiv_pos_as_xyz
  1  'x, y, z'
loop_
 _atom_site_type_symbol
 _atom_site_label
 _atom_site_symmetry_multiplicity
 _atom_site_fract_x
 _atom_site_fract_y
 _atom_site_fract_z
 _atom_site_occupancy
  Ti  Ti0  1  0.16748869  0.33445217  0.06232633  1
  Ti  Ti1  1  0.29278060  0.08402061  0.06248094  1
  Ti  Ti2  1  0.48024097  0.20822572  0.06263274  1
  Ti  Ti3  1  0.10420557  0.95970526  0.06227960  1
  Ti  Ti4  1  0.41718117  0.82937955  0.06259247  1
  Ti  Ti5  1  0.46105581  0.41802049  0.56257013  1
  Ti  Ti6  1  0.39737312  0.03894442  0.56262576  1
  Ti  Ti7  1  0.02084795  0.79214938  0.56230639  1
  Ti  Ti8  1  0.22781009  0.70971140  0.06236595  1
  Ti  Ti9  1  0.35616150  0.46040402  0.06257651  1
  Ti  Ti10  1  0.04093930  0.58463209  0.06238310  1
  Ti  Ti11  1  0.33241276  0.66610541  0.56250072  1
  Ti  Ti12  1  0.14557895  0.54105415  0.56234766  1
  Ti  Ti13  1  0.27277539  0.29196138  0.56247508  1
  Ti  Ti14  1  0.08430107  0.16742399  0.56227663  1
  Ti  Ti15  1  0.20920004  0.91794146  0.56234958  1
  Ti  Ti16  1  0.66425332  0.33455154  0.06254339  1
  Ti  Ti17  1  0.79191749  0.08732824  0.06244247  1
  Ti  Ti18  1  0.97941151  0.21076370  0.06236267  1
  Ti  Ti19  1  0.60404146  0.95225009  0.06254509  1
  Ti  Ti20  1  0.91604352  0.83514424  0.06235070  1
  Ti  Ti21  1  0.95758147  0.41723600  0.56240433  1
  Ti  Ti22  1  0.89621629  0.04336508  0.56236974  1
  Ti  Ti23  1  0.52143645  0.78239765  0.56250088  1
  Ti  Ti24  1  0.72670619  0.70827815  0.06245427  1
  Ti  Ti25  1  0.85308541  0.46076290  0.06245186  1
  Ti  Ti26  1  0.83219314  0.66804013  0.56239983  1
  Ti  Ti27  1  0.64218889  0.54182778  0.56238803  1
  Ti  Ti28  1  0.76957474  0.29366098  0.56251403  1
  Ti  Ti29  1  0.58410955  0.16104401  0.56258578  1
  Ti  Ti30  1  0.70977127  0.91812840  0.56247191  1
  N  N31  1  0.22770474  0.70929930  0.56237282  1
  N  N32  1  0.35599157  0.46107059  0.56257377  1
  N  N33  1  0.04078646  0.58415647  0.56239011  1
  N  N34  1  0.16800540  0.33441687  0.56234381  1
  N  N35  1  0.29385703  0.08510433  0.56249085  1
  N  N36  1  0.48082745  0.20649996  0.56263151  1
  N  N37  1  0.10424956  0.95942018  0.56227301  1
  N  N38  1  0.41696876  0.82913779  0.56258783  1
  N  N39  1  0.33216845  0.66608539  0.06250488  1
  N  N40  1  0.45799035  0.41059491  0.06275002  1
  N  N41  1  0.14558395  0.54071797  0.06234996  1
  N  N42  1  0.27284135  0.29245771  0.06247826  1
  N  N43  1  0.39776117  0.03901244  0.06258871  1
  N  N44  1  0.08414665  0.16749623  0.06227419  1
  N  N45  1  0.20942533  0.91882055  0.06236773  1
  N  N46  1  0.02079844  0.79265636  0.06231697  1
  N  N47  1  0.72663250  0.70904704  0.56242573  1
  N  N48  1  0.85246802  0.46102535  0.56246199  1
  N  N49  1  0.54071589  0.58103054  0.56347877  1
  N  N50  1  0.66365863  0.33358617  0.56253192  1
  N  N51  1  0.79216912  0.08789558  0.56246613  1
  N  N52  1  0.97973018  0.21060289  0.56237522  1
  N  N53  1  0.60434168  0.95184900  0.56252964  1
  N  N54  1  0.91622511  0.83486542  0.56235130  1
  N  N55  1  0.83179609  0.66867618  0.06238059  1
  N  N56  1  0.95743599  0.41732884  0.06241600  1
  N  N57  1  0.64648426  0.54033560  0.06260837  1
  N  N58  1  0.76907501  0.29417298  0.06249545  1
  N  N59  1  0.89603719  0.04297368  0.06238247  1
  N  N60  1  0.58408360  0.16029737  0.06258574  1
  N  N61  1  0.70986881  0.91842820  0.06245896  1
  N  N62  1  0.52068930  0.79094439  0.06269625  1
  Fe  Fe63  1  0.54059829  0.58108334  0.06418649  1
