# generated using pymatgen
data_Ti31BN32
_symmetry_space_group_name_H-M   'P 1'
_cell_length_a   18.33161872
_cell_length_b   9.28074728
_cell_length_c   4.22723248
_cell_angle_alpha   90.00251398
_cell_angle_beta   90.00682076
_cell_angle_gamma   98.47383591
_symmetry_Int_Tables_number   1
_chemical_formula_structural   Ti31BN32
_chemical_formula_sum   'Ti31 B1 N32'
_cell_volume   711.33264754
_cell_formula_units_Z   1
loop_
 _symmetry_equiv_pos_site_id
 _symmetry_equiv_pos_as_xyz
  1  'x, y, z'
loop_
 _atom_site_type_symbol
 _atom_site_label
 _atom_site_symmetry_multiplicity
 _atom_site_fract_x
 _atom_site_fract_y
 _atom_site_fract_z
 _atom_site_occupancy
  Ti  Ti0  1  0.16867413  0.33538613  0.06285067  1
  Ti  Ti1  1  0.29596450  0.08744698  0.06283100  1
  Ti  Ti2  1  0.48064673  0.21398144  0.06315441  1
  Ti  Ti3  1  0.10517680  0.96056217  0.06285511  1
  Ti  Ti4  1  0.42269481  0.82841191  0.06295085  1
  Ti  Ti5  1  0.46208331  0.41774052  0.56160921  1
  Ti  Ti6  1  0.39954478  0.03955447  0.56284964  1
  Ti  Ti7  1  0.02054930  0.79337196  0.56275059  1
  Ti  Ti8  1  0.23099521  0.70993674  0.06286043  1
  Ti  Ti9  1  0.36173046  0.46038383  0.06323963  1
  Ti  Ti10  1  0.04111606  0.58483603  0.06278768  1
  Ti  Ti11  1  0.33537665  0.66572053  0.56334456  1
  Ti  Ti12  1  0.14640771  0.54233628  0.56283538  1
  Ti  Ti13  1  0.27456093  0.29336177  0.56299288  1
  Ti  Ti14  1  0.08385066  0.16837024  0.56285155  1
  Ti  Ti15  1  0.21047231  0.91842204  0.56291228  1
  Ti  Ti16  1  0.66187770  0.34033824  0.06323807  1
  Ti  Ti17  1  0.78864549  0.08461324  0.06288288  1
  Ti  Ti18  1  0.97839018  0.20982887  0.06288211  1
  Ti  Ti19  1  0.59955158  0.94778285  0.06304986  1
  Ti  Ti20  1  0.91493657  0.83431137  0.06277573  1
  Ti  Ti21  1  0.95685021  0.41733794  0.56284023  1
  Ti  Ti22  1  0.89410830  0.04195521  0.56298111  1
  Ti  Ti23  1  0.52182486  0.78105733  0.56164140  1
  Ti  Ti24  1  0.72222532  0.70325613  0.06327184  1
  Ti  Ti25  1  0.85035239  0.46071901  0.06290555  1
  Ti  Ti26  1  0.82978687  0.66662867  0.56288384  1
  Ti  Ti27  1  0.64240834  0.54067408  0.56169054  1
  Ti  Ti28  1  0.76747954  0.29343049  0.56298417  1
  Ti  Ti29  1  0.58328031  0.16106512  0.56339590  1
  Ti  Ti30  1  0.70661606  0.91519102  0.56333329  1
  N  N31  1  0.23091006  0.70979136  0.56307343  1
  N  N32  1  0.35916209  0.45980474  0.56223837  1
  N  N33  1  0.04098891  0.58530536  0.56281524  1
  N  N34  1  0.16929608  0.33509128  0.56292906  1
  N  N35  1  0.29537158  0.08509534  0.56301410  1
  N  N36  1  0.48062693  0.21244632  0.56219429  1
  N  N37  1  0.10546188  0.96065243  0.56281637  1
  N  N38  1  0.42034201  0.83107380  0.56186023  1
  N  N39  1  0.33669052  0.66572410  0.06301591  1
  N  N40  1  0.47632518  0.44774599  0.06768743  1
  N  N41  1  0.14659820  0.54244608  0.06298638  1
  N  N42  1  0.27426876  0.29583069  0.06294433  1
  N  N43  1  0.39995641  0.03767792  0.06279639  1
  N  N44  1  0.08389600  0.16918806  0.06288550  1
  N  N45  1  0.21076349  0.91864235  0.06296069  1
  N  N46  1  0.02032363  0.79375950  0.06278899  1
  N  N47  1  0.72431051  0.70642372  0.56226617  1
  N  N48  1  0.85190459  0.45983109  0.56296763  1
  N  N49  1  0.54174706  0.58046649  0.61058444  1
  N  N50  1  0.66243522  0.33664823  0.56230363  1
  N  N51  1  0.78906541  0.08575366  0.56310199  1
  N  N52  1  0.97805515  0.20916427  0.56285045  1
  N  N53  1  0.60085944  0.95103904  0.56218408  1
  N  N54  1  0.91485304  0.83297982  0.56286223  1
  N  N55  1  0.82969137  0.66972428  0.06284035  1
  N  N56  1  0.95658870  0.41728347  0.06281835  1
  N  N57  1  0.62448820  0.54808254  0.06760204  1
  N  N58  1  0.76653625  0.29123296  0.06300066  1
  N  N59  1  0.89325535  0.04211714  0.06293032  1
  N  N60  1  0.58437706  0.16264396  0.06305477  1
  N  N61  1  0.70556105  0.91344081  0.06320901  1
  N  N62  1  0.52528973  0.74465621  0.06751666  1
  B  B63  1  0.54182210  0.58022438  0.98046818  1
