# generated using pymatgen
data_Ti31NbN32
_symmetry_space_group_name_H-M   'P 1'
_cell_length_a   18.39185120
_cell_length_b   9.38138829
_cell_length_c   4.24426641
_cell_angle_alpha   89.99900488
_cell_angle_beta   89.99874953
_cell_angle_gamma   98.12680010
_symmetry_Int_Tables_number   1
_chemical_formula_structural   Ti31NbN32
_chemical_formula_sum   'Ti31 Nb1 N32'
_cell_volume   724.95626209
_cell_formula_units_Z   1
loop_
 _symmetry_equiv_pos_site_id
 _symmetry_equiv_pos_as_xyz
  1  'x, y, z'
loop_
 _atom_site_type_symbol
 _atom_site_label
 _atom_site_symmetry_multiplicity
 _atom_site_fract_x
 _atom_site_fract_y
 _atom_site_fract_z
 _atom_site_occupancy
  Ti  Ti0  1  0.16609398  0.33633267  0.06239922  1
  Ti  Ti1  1  0.29142719  0.08588618  0.06247699  1
  Ti  Ti2  1  0.47975995  0.20584047  0.06260958  1
  Ti  Ti3  1  0.10374150  0.96162439  0.06231505  1
  Ti  Ti4  1  0.41510419  0.83161882  0.06253337  1
  Ti  Ti5  1  0.45785148  0.41246808  0.56254457  1
  Ti  Ti6  1  0.39580160  0.03986761  0.56257905  1
  Ti  Ti7  1  0.02141039  0.79339692  0.56240880  1
  Ti  Ti8  1  0.22742523  0.71109075  0.06233025  1
  Ti  Ti9  1  0.35352181  0.46067611  0.06248337  1
  Ti  Ti10  1  0.04065062  0.58582479  0.06241889  1
  Ti  Ti11  1  0.33235691  0.66608409  0.56242894  1
  Ti  Ti12  1  0.14536867  0.54295587  0.56238161  1
  Ti  Ti13  1  0.27083303  0.29251587  0.56249549  1
  Ti  Ti14  1  0.08379572  0.16853444  0.56233970  1
  Ti  Ti15  1  0.20858807  0.91884455  0.56235183  1
  Ti  Ti16  1  0.66606817  0.33003095  0.06261221  1
  Ti  Ti17  1  0.79231133  0.08396292  0.06255441  1
  Ti  Ti18  1  0.97899792  0.21092843  0.06239846  1
  Ti  Ti19  1  0.60485618  0.95465859  0.06261665  1
  Ti  Ti20  1  0.91664472  0.83495810  0.06250332  1
  Ti  Ti21  1  0.95844894  0.41762739  0.56246263  1
  Ti  Ti22  1  0.89704363  0.04226292  0.56245564  1
  Ti  Ti23  1  0.52059052  0.78960911  0.56255529  1
  Ti  Ti24  1  0.72908387  0.70891700  0.06262032  1
  Ti  Ti25  1  0.85362400  0.45933105  0.06259362  1
  Ti  Ti26  1  0.83429172  0.66665763  0.56260061  1
  Ti  Ti27  1  0.64737185  0.53858141  0.56257663  1
  Ti  Ti28  1  0.77176008  0.29032410  0.56260029  1
  Ti  Ti29  1  0.58397934  0.16264720  0.56263194  1
  Ti  Ti30  1  0.70952303  0.91503588  0.56258284  1
  N  N31  1  0.22745082  0.71116985  0.56233084  1
  N  N32  1  0.35329656  0.45978904  0.56247770  1
  N  N33  1  0.04050147  0.58587214  0.56241041  1
  N  N34  1  0.16627685  0.33671976  0.56240403  1
  N  N35  1  0.29174054  0.08616325  0.56248307  1
  N  N36  1  0.47936677  0.20436254  0.56261811  1
  N  N37  1  0.10387768  0.96160242  0.56230109  1
  N  N38  1  0.41518307  0.83251187  0.56252261  1
  N  N39  1  0.33092594  0.66664867  0.06243096  1
  N  N40  1  0.45539201  0.40752554  0.06255000  1
  N  N41  1  0.14531658  0.54317832  0.06238269  1
  N  N42  1  0.27080414  0.29278951  0.06249853  1
  N  N43  1  0.39564788  0.03970162  0.06258183  1
  N  N44  1  0.08388977  0.16883014  0.06233932  1
  N  N45  1  0.20875433  0.91906394  0.06235305  1
  N  N46  1  0.02166621  0.79355169  0.06241705  1
  N  N47  1  0.72983036  0.70860326  0.56260500  1
  N  N48  1  0.85326957  0.45930141  0.56259121  1
  N  N49  1  0.54153160  0.58084157  0.56252758  1
  N  N50  1  0.66680030  0.32931103  0.56261034  1
  N  N51  1  0.79213833  0.08350677  0.56254880  1
  N  N52  1  0.97902880  0.21102012  0.56238599  1
  N  N53  1  0.60473547  0.95564229  0.56260780  1
  N  N54  1  0.91640256  0.83496929  0.56249938  1
  N  N55  1  0.83421811  0.66695482  0.06261877  1
  N  N56  1  0.95828325  0.41773881  0.06246076  1
  N  N57  1  0.65060653  0.53717862  0.06257929  1
  N  N58  1  0.77150979  0.29010018  0.06261038  1
  N  N59  1  0.89705466  0.04220660  0.06245984  1
  N  N60  1  0.58429091  0.16022477  0.06263698  1
  N  N61  1  0.71056901  0.91740368  0.06259143  1
  N  N62  1  0.51975251  0.79535380  0.06255383  1
  Nb  Nb63  1  0.54156199  0.58106843  0.06254980  1
