# generated using pymatgen
data_Al31CrN32
_symmetry_space_group_name_H-M   'P 1'
_cell_length_a   8.14454219
_cell_length_b   8.14454219
_cell_length_c   8.14454219
_cell_angle_alpha   90.00000000
_cell_angle_beta   90.00000000
_cell_angle_gamma   90.00000000
_symmetry_Int_Tables_number   1
_chemical_formula_structural   Al31CrN32
_chemical_formula_sum   'Al31 Cr1 N32'
_cell_volume   540.25653899
_cell_formula_units_Z   1
loop_
 _symmetry_equiv_pos_site_id
 _symmetry_equiv_pos_as_xyz
  1  'x, y, z'
loop_
 _atom_site_type_symbol
 _atom_site_label
 _atom_site_symmetry_multiplicity
 _atom_site_fract_x
 _atom_site_fract_y
 _atom_site_fract_z
 _atom_site_occupancy
  Al  Al0  1  -0.00000000  0.00000000  -0.00000000  1
  Al  Al1  1  -0.00000000  0.25003384  0.25003385  1
  Al  Al2  1  0.25003385  -0.00000000  0.25003386  1
  Al  Al3  1  0.25003385  0.25003385  0.00000000  1
  Al  Al4  1  -0.00000000  0.00000000  0.50000000  1
  Al  Al5  1  -0.00000000  0.25003384  0.74996615  1
  Al  Al6  1  0.25003385  -0.00000001  0.74996614  1
  Al  Al7  1  0.24991379  0.24991378  0.50000000  1
  Al  Al8  1  -0.00000000  0.50000000  -0.00000000  1
  Al  Al9  1  0.00000000  0.74996616  0.25003385  1
  Al  Al10  1  0.24991381  0.50000000  0.24991379  1
  Al  Al11  1  0.25003385  0.74996614  -0.00000000  1
  Al  Al12  1  -0.00000000  0.50000000  0.50000000  1
  Al  Al13  1  0.00000000  0.74996616  0.74996615  1
  Al  Al14  1  0.24991380  0.50000001  0.75008621  1
  Al  Al15  1  0.24991379  0.75008622  0.50000000  1
  Al  Al16  1  0.50000000  0.00000000  -0.00000000  1
  Al  Al17  1  0.50000000  0.24991379  0.24991379  1
  Al  Al18  1  0.74996615  0.00000001  0.25003386  1
  Al  Al19  1  0.74996615  0.25003386  0.00000000  1
  Al  Al20  1  0.50000000  0.00000000  0.50000000  1
  Al  Al21  1  0.50000001  0.24991379  0.75008621  1
  Al  Al22  1  0.74996615  0.00000000  0.74996614  1
  Al  Al23  1  0.75008621  0.24991378  0.50000000  1
  Al  Al24  1  0.50000000  0.50000000  -0.00000000  1
  Al  Al25  1  0.49999999  0.75008621  0.24991379  1
  Al  Al26  1  0.75008620  0.49999999  0.24991379  1
  Al  Al27  1  0.74996615  0.74996615  -0.00000000  1
  Al  Al28  1  0.50000000  0.75008621  0.75008621  1
  Al  Al29  1  0.75008619  0.50000000  0.75008621  1
  Al  Al30  1  0.75008621  0.75008622  0.50000000  1
  N  N31  1  0.25016390  0.25016390  0.25016391  1
  N  N32  1  0.24994944  -0.00000001  -0.00000001  1
  N  N33  1  -0.00000000  0.24994946  -0.00000001  1
  N  N34  1  -0.00000000  -0.00000001  0.24994947  1
  N  N35  1  0.25016390  0.25016391  0.74983610  1
  N  N36  1  0.24972577  0.00000000  0.50000000  1
  N  N37  1  0.00000000  0.24972577  0.50000000  1
  N  N38  1  0.00000000  0.00000001  0.75005053  1
  N  N39  1  0.25016390  0.74983610  0.25016390  1
  N  N40  1  0.24972576  0.50000000  -0.00000000  1
  N  N41  1  0.00000000  0.75005054  0.00000001  1
  N  N42  1  -0.00000001  0.50000001  0.24972579  1
  N  N43  1  0.25016390  0.74983609  0.74983609  1
  N  N44  1  0.24632596  0.50000000  0.50000000  1
  N  N45  1  -0.00000000  0.75027423  0.50000000  1
  N  N46  1  0.00000001  0.49999999  0.75027421  1
  N  N47  1  0.74983610  0.25016391  0.25016391  1
  N  N48  1  0.75005056  0.00000001  0.00000001  1
  N  N49  1  0.50000000  0.24972576  -0.00000001  1
  N  N50  1  0.50000001  0.00000000  0.24972577  1
  N  N51  1  0.74983610  0.25016390  0.74983610  1
  N  N52  1  0.75027423  -0.00000000  0.50000000  1
  N  N53  1  0.50000000  0.24632593  0.49999999  1
  N  N54  1  0.49999999  -0.00000000  0.75027423  1
  N  N55  1  0.74983610  0.74983609  0.25016390  1
  N  N56  1  0.75027424  0.50000000  0.00000000  1
  N  N57  1  0.50000000  0.75027424  0.00000001  1
  N  N58  1  0.49999999  0.49999998  0.24632600  1
  N  N59  1  0.74983610  0.74983610  0.74983609  1
  N  N60  1  0.75367404  0.50000000  0.50000000  1
  N  N61  1  0.50000000  0.75367407  0.50000001  1
  N  N62  1  0.50000001  0.50000002  0.75367400  1
  Cr  Cr63  1  0.50000000  0.50000000  0.50000000  1
