# generated using pymatgen
data_MnAl31N32
_symmetry_space_group_name_H-M   'P 1'
_cell_length_a   8.13755073
_cell_length_b   8.13755073
_cell_length_c   8.13755073
_cell_angle_alpha   90.00000000
_cell_angle_beta   90.00000000
_cell_angle_gamma   90.00000000
_symmetry_Int_Tables_number   1
_chemical_formula_structural   MnAl31N32
_chemical_formula_sum   'Mn1 Al31 N32'
_cell_volume   538.86642753
_cell_formula_units_Z   1
loop_
 _symmetry_equiv_pos_site_id
 _symmetry_equiv_pos_as_xyz
  1  'x, y, z'
loop_
 _atom_site_type_symbol
 _atom_site_label
 _atom_site_symmetry_multiplicity
 _atom_site_fract_x
 _atom_site_fract_y
 _atom_site_fract_z
 _atom_site_occupancy
  Al  Al0  1  0.00000000  0.00000000  0.00000000  1
  Al  Al1  1  0.00000000  0.24984956  0.25048576  1
  Al  Al2  1  0.24984955  0.00000000  0.25048575  1
  Al  Al3  1  0.25004278  0.25004279  0.00000000  1
  Al  Al4  1  0.00000000  0.00000000  0.50000000  1
  Al  Al5  1  0.00000000  0.24984956  0.74951424  1
  Al  Al6  1  0.24984955  0.00000000  0.74951425  1
  Al  Al7  1  0.25110414  0.25110414  0.50000000  1
  Al  Al8  1  0.00000000  0.50000000  0.00000000  1
  Al  Al9  1  0.00000000  0.75015044  0.25048576  1
  Al  Al10  1  0.24966074  0.50000000  0.25088062  1
  Al  Al11  1  0.25004278  0.74995721  0.00000000  1
  Al  Al12  1  0.00000000  0.50000000  0.50000000  1
  Al  Al13  1  0.00000000  0.75015044  0.74951424  1
  Al  Al14  1  0.24966074  0.50000000  0.74911938  1
  Al  Al15  1  0.25110414  0.74889586  0.50000000  1
  Al  Al16  1  0.50000000  0.00000000  0.00000000  1
  Al  Al17  1  0.50000000  0.24966074  0.25088061  1
  Al  Al18  1  0.75015045  0.00000000  0.25048575  1
  Al  Al19  1  0.74995722  0.25004279  0.00000000  1
  Al  Al20  1  0.50000000  0.00000000  0.50000000  1
  Al  Al21  1  0.50000000  0.24966074  0.74911939  1
  Al  Al22  1  0.75015045  0.00000000  0.74951425  1
  Al  Al23  1  0.74889586  0.25110414  0.50000000  1
  Al  Al24  1  0.50000000  0.50000000  0.00000000  1
  Al  Al25  1  0.50000000  0.75033926  0.25088061  1
  Al  Al26  1  0.75033926  0.50000000  0.25088062  1
  Al  Al27  1  0.74995722  0.74995721  0.00000000  1
  Al  Al28  1  0.50000000  0.75033926  0.74911939  1
  Al  Al29  1  0.75033926  0.50000000  0.74911938  1
  Al  Al30  1  0.74889586  0.74889586  0.50000000  1
  N  N31  1  0.25034481  0.25034481  0.24992764  1
  N  N32  1  0.25019618  0.00000000  0.00000000  1
  N  N33  1  0.00000000  0.25019618  0.00000000  1
  N  N34  1  0.00000000  0.00000000  0.24966216  1
  N  N35  1  0.25034481  0.25034481  0.75007236  1
  N  N36  1  0.24962080  0.00000000  0.50000000  1
  N  N37  1  0.00000000  0.24962082  0.50000000  1
  N  N38  1  0.00000000  0.00000000  0.75033784  1
  N  N39  1  0.25034481  0.74965519  0.24992764  1
  N  N40  1  0.25092034  0.50000000  0.00000000  1
  N  N41  1  0.00000000  0.74980382  0.00000000  1
  N  N42  1  0.00000000  0.50000000  0.24961893  1
  N  N43  1  0.25034481  0.74965519  0.75007236  1
  N  N44  1  0.24644308  0.50000000  0.50000000  1
  N  N45  1  0.00000000  0.75037918  0.50000000  1
  N  N46  1  0.00000000  0.50000000  0.75038107  1
  N  N47  1  0.74965519  0.25034481  0.24992764  1
  N  N48  1  0.74980382  0.00000000  0.00000000  1
  N  N49  1  0.50000000  0.25092037  0.00000000  1
  N  N50  1  0.50000000  0.00000000  0.24961892  1
  N  N51  1  0.74965519  0.25034481  0.75007236  1
  N  N52  1  0.75037920  0.00000000  0.50000000  1
  N  N53  1  0.50000000  0.24644306  0.50000000  1
  N  N54  1  0.50000000  0.00000000  0.75038108  1
  N  N55  1  0.74965519  0.74965519  0.24992764  1
  N  N56  1  0.74907966  0.50000000  0.00000000  1
  N  N57  1  0.50000000  0.74907963  0.00000000  1
  N  N58  1  0.50000000  0.50000000  0.25123077  1
  N  N59  1  0.74965519  0.74965519  0.75007236  1
  N  N60  1  0.75355692  0.50000000  0.50000000  1
  N  N61  1  0.50000000  0.75355694  0.50000000  1
  N  N62  1  0.50000000  0.50000000  0.74876923  1
  Mn  Mn63  1  0.50000000  0.50000000  0.50000000  1
