# generated using pymatgen
data_Al31FeN32
_symmetry_space_group_name_H-M   'P 1'
_cell_length_a   8.13406151
_cell_length_b   8.13406151
_cell_length_c   8.13406151
_cell_angle_alpha   90.00000000
_cell_angle_beta   90.00000000
_cell_angle_gamma   90.00000000
_symmetry_Int_Tables_number   1
_chemical_formula_structural   Al31FeN32
_chemical_formula_sum   'Al31 Fe1 N32'
_cell_volume   538.17355906
_cell_formula_units_Z   1
loop_
 _symmetry_equiv_pos_site_id
 _symmetry_equiv_pos_as_xyz
  1  'x, y, z'
loop_
 _atom_site_type_symbol
 _atom_site_label
 _atom_site_symmetry_multiplicity
 _atom_site_fract_x
 _atom_site_fract_y
 _atom_site_fract_z
 _atom_site_occupancy
  Al  Al0  1  -0.00000000  0.00000000  0.00000000  1
  Al  Al1  1  -0.00006451  0.25010537  0.25033992  1
  Al  Al2  1  0.25010642  -0.00006450  0.25033998  1
  Al  Al3  1  0.25017214  0.25017114  0.00000000  1
  Al  Al4  1  -0.00000000  0.00000000  0.50000000  1
  Al  Al5  1  -0.00006451  0.25010537  0.74966008  1
  Al  Al6  1  0.25010642  -0.00006450  0.74966002  1
  Al  Al7  1  0.25149864  0.25149733  0.50000000  1
  Al  Al8  1  -0.00000000  0.50000000  0.00000000  1
  Al  Al9  1  0.00006451  0.74989463  0.25033992  1
  Al  Al10  1  0.25067361  0.49979778  0.25117025  1
  Al  Al11  1  0.25018260  0.74981838  0.00000000  1
  Al  Al12  1  -0.00000000  0.50000000  0.50000000  1
  Al  Al13  1  0.00006451  0.74989463  0.74966008  1
  Al  Al14  1  0.25067361  0.49979778  0.74882975  1
  Al  Al15  1  0.25104170  0.74895958  0.50000000  1
  Al  Al16  1  0.50000000  0.00000000  0.00000000  1
  Al  Al17  1  0.49979783  0.25067376  0.25117161  1
  Al  Al18  1  0.74989358  0.00006450  0.25033998  1
  Al  Al19  1  0.74981740  0.25018162  0.00000000  1
  Al  Al20  1  0.50000000  0.00000000  0.50000000  1
  Al  Al21  1  0.49979783  0.25067376  0.74882839  1
  Al  Al22  1  0.74989358  0.00006450  0.74966002  1
  Al  Al23  1  0.74895830  0.25104042  0.50000000  1
  Al  Al24  1  0.50000000  0.50000000  0.00000000  1
  Al  Al25  1  0.50020217  0.74932624  0.25117161  1
  Al  Al26  1  0.74932639  0.50020222  0.25117025  1
  Al  Al27  1  0.74982786  0.74982886  0.00000000  1
  Al  Al28  1  0.50020217  0.74932624  0.74882839  1
  Al  Al29  1  0.74932639  0.50020222  0.74882975  1
  Al  Al30  1  0.74850136  0.74850267  0.50000000  1
  N  N31  1  0.25025436  0.25025364  0.25023768  1
  N  N32  1  0.25016389  0.00009776  0.00000000  1
  N  N33  1  0.00009776  0.25016338  0.00000000  1
  N  N34  1  -0.00000000  0.00000000  0.24996565  1
  N  N35  1  0.25025436  0.25025364  0.74976232  1
  N  N36  1  0.25016766  -0.00000955  0.50000000  1
  N  N37  1  -0.00000956  0.25016617  0.50000000  1
  N  N38  1  -0.00000000  0.00000000  0.75003435  1
  N  N39  1  0.25033056  0.74967009  0.24990466  1
  N  N40  1  0.25060333  0.49997966  0.00000000  1
  N  N41  1  -0.00009776  0.74983662  0.00000000  1
  N  N42  1  -0.00000000  0.50000000  0.25020603  1
  N  N43  1  0.25033056  0.74967009  0.75009534  1
  N  N44  1  0.24848750  0.50022297  0.50000000  1
  N  N45  1  0.00000956  0.74983383  0.50000000  1
  N  N46  1  -0.00000000  0.50000000  0.74979397  1
  N  N47  1  0.74966944  0.25032991  0.24990466  1
  N  N48  1  0.74983611  -0.00009776  0.00000000  1
  N  N49  1  0.49997970  0.25060259  0.00000000  1
  N  N50  1  0.50000000  0.00000000  0.25020677  1
  N  N51  1  0.74966944  0.25032991  0.75009534  1
  N  N52  1  0.74983234  0.00000955  0.50000000  1
  N  N53  1  0.50022304  0.24848613  0.50000000  1
  N  N54  1  0.50000000  0.00000000  0.74979323  1
  N  N55  1  0.74974564  0.74974636  0.25023768  1
  N  N56  1  0.74939667  0.50002034  0.00000000  1
  N  N57  1  0.50002030  0.74939741  0.00000000  1
  N  N58  1  0.50000000  0.50000000  0.25049460  1
  N  N59  1  0.74974564  0.74974636  0.74976232  1
  N  N60  1  0.75151250  0.49977703  0.50000000  1
  N  N61  1  0.49977696  0.75151387  0.50000000  1
  N  N62  1  0.50000000  0.50000000  0.74950540  1
  Fe  Fe63  1  0.50000000  0.50000000  0.50000000  1
