# generated using pymatgen
data_Al31VN32
_symmetry_space_group_name_H-M   'P 1'
_cell_length_a   8.15202597
_cell_length_b   8.15202597
_cell_length_c   8.15202597
_cell_angle_alpha   90.00000000
_cell_angle_beta   90.00000000
_cell_angle_gamma   90.00000000
_symmetry_Int_Tables_number   1
_chemical_formula_structural   Al31VN32
_chemical_formula_sum   'Al31 V1 N32'
_cell_volume   541.74718534
_cell_formula_units_Z   1
loop_
 _symmetry_equiv_pos_site_id
 _symmetry_equiv_pos_as_xyz
  1  'x, y, z'
loop_
 _atom_site_type_symbol
 _atom_site_label
 _atom_site_symmetry_multiplicity
 _atom_site_fract_x
 _atom_site_fract_y
 _atom_site_fract_z
 _atom_site_occupancy
  Al  Al0  1  0.00000000  0.00000000  0.00000000  1
  Al  Al1  1  0.00008837  0.24979841  0.25010324  1
  Al  Al2  1  0.24981601  0.00008834  0.25010114  1
  Al  Al3  1  0.24986376  0.24984394  0.00000000  1
  Al  Al4  1  0.00000000  0.00000000  0.50000000  1
  Al  Al5  1  0.00008837  0.24979841  0.74989676  1
  Al  Al6  1  0.24981601  0.00008834  0.74989886  1
  Al  Al7  1  0.24940124  0.24936309  0.50000000  1
  Al  Al8  1  0.00000000  0.50000000  0.00000000  1
  Al  Al9  1  -0.00008837  0.75020159  0.25010324  1
  Al  Al10  1  0.24891242  0.50023717  0.24954565  1
  Al  Al11  1  0.24987156  0.75014831  0.00000000  1
  Al  Al12  1  0.00000000  0.50000000  0.50000000  1
  Al  Al13  1  -0.00008837  0.75020159  0.74989676  1
  Al  Al14  1  0.24891242  0.50023717  0.75045435  1
  Al  Al15  1  0.24994797  0.75009051  0.50000000  1
  Al  Al16  1  0.50000000  0.00000000  0.00000000  1
  Al  Al17  1  0.50023712  0.24890891  0.24958143  1
  Al  Al18  1  0.75018399  -0.00008834  0.25010114  1
  Al  Al19  1  0.75012844  0.24985169  0.00000000  1
  Al  Al20  1  0.50000000  0.00000000  0.50000000  1
  Al  Al21  1  0.50023712  0.24890891  0.75041857  1
  Al  Al22  1  0.75018399  -0.00008834  0.74989886  1
  Al  Al23  1  0.75005203  0.24990949  0.50000000  1
  Al  Al24  1  0.50000000  0.50000000  0.00000000  1
  Al  Al25  1  0.49976288  0.75109109  0.24958143  1
  Al  Al26  1  0.75108758  0.49976283  0.24954565  1
  Al  Al27  1  0.75013624  0.75015606  0.00000000  1
  Al  Al28  1  0.49976288  0.75109109  0.75041857  1
  Al  Al29  1  0.75108758  0.49976283  0.75045435  1
  Al  Al30  1  0.75059876  0.75063691  0.50000000  1
  N  N31  1  0.25023598  0.25025377  0.24972530  1
  N  N32  1  0.24986431  -0.00011417  0.00000000  1
  N  N33  1  -0.00011424  0.24987969  0.00000000  1
  N  N34  1  0.00000000  0.00000000  0.24961492  1
  N  N35  1  0.25023598  0.25025377  0.75027470  1
  N  N36  1  0.24906368  -0.00009815  0.50000000  1
  N  N37  1  -0.00009767  0.24909223  0.50000000  1
  N  N38  1  0.00000000  0.00000000  0.75038508  1
  N  N39  1  0.25020240  0.74978005  0.25013165  1
  N  N40  1  0.24964746  0.50000809  0.00000000  1
  N  N41  1  0.00011424  0.75012031  0.00000000  1
  N  N42  1  0.00000000  0.50000000  0.24915564  1
  N  N43  1  0.25020240  0.74978005  0.74986835  1
  N  N44  1  0.24369877  0.49933798  0.50000000  1
  N  N45  1  0.00009767  0.75090777  0.50000000  1
  N  N46  1  0.00000000  0.50000000  0.75084436  1
  N  N47  1  0.74979760  0.25021995  0.25013165  1
  N  N48  1  0.75013569  0.00011417  0.00000000  1
  N  N49  1  0.50000787  0.24964828  0.00000000  1
  N  N50  1  0.50000000  0.00000000  0.24912866  1
  N  N51  1  0.74979760  0.25021995  0.74986835  1
  N  N52  1  0.75093632  0.00009815  0.50000000  1
  N  N53  1  0.49933795  0.24358447  0.50000000  1
  N  N54  1  0.50000000  0.00000000  0.75087134  1
  N  N55  1  0.74976402  0.74974623  0.24972530  1
  N  N56  1  0.75035254  0.49999191  0.00000000  1
  N  N57  1  0.49999213  0.75035172  0.00000000  1
  N  N58  1  0.50000000  0.50000000  0.24606058  1
  N  N59  1  0.74976402  0.74974623  0.75027470  1
  N  N60  1  0.75630123  0.50066202  0.50000000  1
  N  N61  1  0.50066205  0.75641553  0.50000000  1
  N  N62  1  0.50000000  0.50000000  0.75393942  1
  V  V63  1  0.50000000  0.50000000  0.50000000  1
