# generated using pymatgen
data_Al31VN32
_symmetry_space_group_name_H-M   'P 1'
_cell_length_a   16.58886868
_cell_length_b   8.29318811
_cell_length_c   5.01611097
_cell_angle_alpha   89.99898362
_cell_angle_beta   89.99834604
_cell_angle_gamma   98.20833530
_symmetry_Int_Tables_number   1
_chemical_formula_structural   Al31VN32
_chemical_formula_sum   'Al31 V1 N32'
_cell_volume   683.01986062
_cell_formula_units_Z   1
loop_
 _symmetry_equiv_pos_site_id
 _symmetry_equiv_pos_as_xyz
  1  'x, y, z'
loop_
 _atom_site_type_symbol
 _atom_site_label
 _atom_site_symmetry_multiplicity
 _atom_site_fract_x
 _atom_site_fract_y
 _atom_site_fract_z
 _atom_site_occupancy
  Al  Al0  1  0.16572293  0.33320359  0.00319900  1
  Al  Al1  1  0.29086569  0.08365905  0.00324282  1
  Al  Al2  1  0.47848360  0.20502671  0.00236120  1
  Al  Al3  1  0.10417673  0.95842929  0.00334287  1
  Al  Al4  1  0.41514054  0.83428255  0.00223834  1
  Al  Al5  1  0.45724396  0.41469573  0.50534289  1
  Al  Al6  1  0.39522177  0.04138534  0.50274126  1
  Al  Al7  1  0.02107386  0.79172605  0.50329638  1
  Al  Al8  1  0.22877476  0.70826491  0.00327112  1
  Al  Al9  1  0.35206310  0.45681841  0.00232468  1
  Al  Al10  1  0.04167711  0.58342911  0.00332931  1
  Al  Al11  1  0.33301475  0.66628573  0.50298154  1
  Al  Al12  1  0.14564887  0.54170656  0.50332973  1
  Al  Al13  1  0.27005736  0.29136877  0.50299570  1
  Al  Al14  1  0.08311321  0.16657104  0.50332461  1
  Al  Al15  1  0.20817360  0.91662082  0.50331715  1
  Al  Al16  1  0.66828449  0.33220775  0.00223937  1
  Al  Al17  1  0.79236037  0.08280072  0.00304623  1
  Al  Al18  1  0.97911048  0.20833942  0.00332188  1
  Al  Al19  1  0.60491446  0.96160175  0.00224568  1
  Al  Al20  1  0.91754788  0.83366871  0.00316468  1
  Al  Al21  1  0.95844395  0.41671156  0.50334935  1
  Al  Al22  1  0.89608128  0.04149615  0.50329656  1
  Al  Al23  1  0.52056110  0.79399707  0.50545766  1
  Al  Al24  1  0.73126441  0.70992031  0.00231694  1
  Al  Al25  1  0.85461313  0.45840696  0.00334339  1
  Al  Al26  1  0.83399960  0.66695832  0.50305764  1
  Al  Al27  1  0.64722690  0.54157391  0.50540008  1
  Al  Al28  1  0.77138639  0.29126008  0.50306358  1
  Al  Al29  1  0.58350344  0.16748717  0.50273774  1
  Al  Al30  1  0.70855644  0.91684056  0.50301129  1
  N  N31  1  0.22892702  0.70833619  0.62151299  1
  N  N32  1  0.35324069  0.45788912  0.62170300  1
  N  N33  1  0.04160624  0.58341407  0.62167711  1
  N  N34  1  0.16610574  0.33337281  0.62172039  1
  N  N35  1  0.29122800  0.08350962  0.62162488  1
  N  N36  1  0.47905128  0.20676419  0.62154765  1
  N  N37  1  0.10416176  0.95850650  0.62170634  1
  N  N38  1  0.41590011  0.83322854  0.62170676  1
  N  N39  1  0.33284737  0.66599658  0.12132377  1
  N  N40  1  0.45399855  0.40867073  0.12381114  1
  N  N41  1  0.14560288  0.54169971  0.12166654  1
  N  N42  1  0.26919087  0.29089023  0.12182612  1
  N  N43  1  0.39445039  0.04108423  0.12177702  1
  N  N44  1  0.08291970  0.16626528  0.12173564  1
  N  N45  1  0.20806825  0.91643343  0.12168675  1
  N  N46  1  0.02129539  0.79171170  0.12178260  1
  N  N47  1  0.73008108  0.70933621  0.62174363  1
  N  N48  1  0.85435207  0.45840330  0.62156695  1
  N  N49  1  0.54170313  0.58317193  0.60532622  1
  N  N50  1  0.66733255  0.33269005  0.62172758  1
  N  N51  1  0.79203787  0.08300781  0.62154438  1
  N  N52  1  0.97909032  0.20840895  0.62170742  1
  N  N53  1  0.60467467  0.95948048  0.62153227  1
  N  N54  1  0.91714650  0.83361806  0.62171320  1
  N  N55  1  0.83478340  0.66726108  0.12169978  1
  N  N56  1  0.95859282  0.41662470  0.12167830  1
  N  N57  1  0.65127330  0.54047890  0.12401243  1
  N  N58  1  0.77200898  0.29053135  0.12168486  1
  N  N59  1  0.89623750  0.04130986  0.12170578  1
  N  N60  1  0.58368727  0.16904490  0.12126426  1
  N  N61  1  0.70863053  0.91699576  0.12122887  1
  N  N62  1  0.51976094  0.80190567  0.12381118  1
  V  V63  1  0.54170664  0.58321396  0.01755349  1
