# generated using pymatgen
data_HfAl31N32
_symmetry_space_group_name_H-M   'P 1'
_cell_length_a   16.65811950
_cell_length_b   8.32286936
_cell_length_c   5.01671679
_cell_angle_alpha   89.99110867
_cell_angle_beta   89.99936260
_cell_angle_gamma   98.18230658
_symmetry_Int_Tables_number   1
_chemical_formula_structural   HfAl31N32
_chemical_formula_sum   'Hf1 Al31 N32'
_cell_volume   688.45404373
_cell_formula_units_Z   1
loop_
 _symmetry_equiv_pos_site_id
 _symmetry_equiv_pos_as_xyz
  1  'x, y, z'
loop_
 _atom_site_type_symbol
 _atom_site_label
 _atom_site_symmetry_multiplicity
 _atom_site_fract_x
 _atom_site_fract_y
 _atom_site_fract_z
 _atom_site_occupancy
  Al  Al0  1  0.16422311  0.33277368  0.00320539  1
  Al  Al1  1  0.28948603  0.08370355  0.00328685  1
  Al  Al2  1  0.47708078  0.20040993  0.00190424  1
  Al  Al3  1  0.10415370  0.95840558  0.00354245  1
  Al  Al4  1  0.41325989  0.83630613  0.00152356  1
  Al  Al5  1  0.45501267  0.41042273  0.50582095  1
  Al  Al6  1  0.39401895  0.04078738  0.50206131  1
  Al  Al7  1  0.02149536  0.79178677  0.50338884  1
  Al  Al8  1  0.22829281  0.70792460  0.00320204  1
  Al  Al9  1  0.34860434  0.45404297  0.00182327  1
  Al  Al10  1  0.04177322  0.58351718  0.00355593  1
  Al  Al11  1  0.33263768  0.66546228  0.50287645  1
  Al  Al12  1  0.14538760  0.54164797  0.50339134  1
  Al  Al13  1  0.26860544  0.29043213  0.50271045  1
  Al  Al14  1  0.08266276  0.16619950  0.50344447  1
  Al  Al15  1  0.20779303  0.91614567  0.50326294  1
  Al  Al16  1  0.67096682  0.33149554  0.00156853  1
  Al  Al17  1  0.79327514  0.08201555  0.00268811  1
  Al  Al18  1  0.97897169  0.20809678  0.00349656  1
  Al  Al19  1  0.60549732  0.96725577  0.00132630  1
  Al  Al20  1  0.91893535  0.83410994  0.00313246  1
  Al  Al21  1  0.95881857  0.41668249  0.50350215  1
  Al  Al22  1  0.89645080  0.04108792  0.50329870  1
  Al  Al23  1  0.51995905  0.79924524  0.50639595  1
  Al  Al24  1  0.73480847  0.71246227  0.00168536  1
  Al  Al25  1  0.85546926  0.45844961  0.00353584  1
  Al  Al26  1  0.83526349  0.66731593  0.50288181  1
  Al  Al27  1  0.65021586  0.54075362  0.50618264  1
  Al  Al28  1  0.77253365  0.29060744  0.50271774  1
  Al  Al29  1  0.58368158  0.16991583  0.50230916  1
  Al  Al30  1  0.70877848  0.91716440  0.50296867  1
  N  N31  1  0.22864665  0.70796212  0.62103069  1
  N  N32  1  0.35188631  0.45667679  0.62205498  1
  N  N33  1  0.04163481  0.58353980  0.62157098  1
  N  N34  1  0.16514739  0.33326001  0.62168143  1
  N  N35  1  0.29040771  0.08341684  0.62141848  1
  N  N36  1  0.47857126  0.20472307  0.62160973  1
  N  N37  1  0.10412726  0.95864299  0.62158575  1
  N  N38  1  0.41490547  0.83291422  0.62192512  1
  N  N39  1  0.33247734  0.66495669  0.12076848  1
  N  N40  1  0.44772307  0.39847588  0.12579079  1
  N  N41  1  0.14535853  0.54159433  0.12144371  1
  N  N42  1  0.26659454  0.28944175  0.12193831  1
  N  N43  1  0.39219557  0.04039538  0.12195414  1
  N  N44  1  0.08228564  0.16556419  0.12167881  1
  N  N45  1  0.20759739  0.91566041  0.12138617  1
  N  N46  1  0.02199385  0.79164880  0.12182859  1
  N  N47  1  0.73144921  0.71056311  0.62204288  1
  N  N48  1  0.85486032  0.45850278  0.62125693  1
  N  N49  1  0.54186071  0.58261641  0.58402220  1
  N  N50  1  0.66855551  0.33217951  0.62207627  1
  N  N51  1  0.79256329  0.08238281  0.62111926  1
  N  N52  1  0.97895080  0.20832112  0.62156596  1
  N  N53  1  0.60520525  0.96148960  0.62138255  1
  N  N54  1  0.91793442  0.83387777  0.62169284  1
  N  N55  1  0.83715009  0.66818774  0.12170123  1
  N  N56  1  0.95912651  0.41650968  0.12151809  1
  N  N57  1  0.65912684  0.54015944  0.12655818  1
  N  N58  1  0.77378960  0.28899057  0.12142727  1
  N  N59  1  0.89672725  0.04054227  0.12145852  1
  N  N60  1  0.58409821  0.17430996  0.12080696  1
  N  N61  1  0.70865317  0.91734864  0.12041083  1
  N  N62  1  0.51834548  0.81676176  0.12613798  1
  Hf  Hf63  1  0.54193768  0.58175719  0.03846539  1
