# generated using pymatgen
data_TaAl31N32
_symmetry_space_group_name_H-M   'P 1'
_cell_length_a   16.63638289
_cell_length_b   8.31384413
_cell_length_c   5.01730155
_cell_angle_alpha   89.99864297
_cell_angle_beta   89.99761958
_cell_angle_gamma   98.19535442
_symmetry_Int_Tables_number   1
_chemical_formula_structural   TaAl31N32
_chemical_formula_sum   'Ta1 Al31 N32'
_cell_volume   686.86767976
_cell_formula_units_Z   1
loop_
 _symmetry_equiv_pos_site_id
 _symmetry_equiv_pos_as_xyz
  1  'x, y, z'
loop_
 _atom_site_type_symbol
 _atom_site_label
 _atom_site_symmetry_multiplicity
 _atom_site_fract_x
 _atom_site_fract_y
 _atom_site_fract_z
 _atom_site_occupancy
  Al  Al0  1  0.16459850  0.33287763  0.00296914  1
  Al  Al1  1  0.28991153  0.08384505  0.00287702  1
  Al  Al2  1  0.47755728  0.20135112  0.00107118  1
  Al  Al3  1  0.10418013  0.95844019  0.00324364  1
  Al  Al4  1  0.41342812  0.83526952  0.00069359  1
  Al  Al5  1  0.45530806  0.41152467  0.51008619  1
  Al  Al6  1  0.39422331  0.04100921  0.50154653  1
  Al  Al7  1  0.02143248  0.79177797  0.50314949  1
  Al  Al8  1  0.22833327  0.70801829  0.00320800  1
  Al  Al9  1  0.34968247  0.45488371  0.00101733  1
  Al  Al10  1  0.04171061  0.58345483  0.00327373  1
  Al  Al11  1  0.33260841  0.66563419  0.50305848  1
  Al  Al12  1  0.14539400  0.54163051  0.50322516  1
  Al  Al13  1  0.26881473  0.29061355  0.50222415  1
  Al  Al14  1  0.08272451  0.16626986  0.50316789  1
  Al  Al15  1  0.20786911  0.91632070  0.50298155  1
  Al  Al16  1  0.67025034  0.33126936  0.00081280  1
  Al  Al17  1  0.79313093  0.08222199  0.00275384  1
  Al  Al18  1  0.97899035  0.20818542  0.00321835  1
  Al  Al19  1  0.60565383  0.96558861  0.00087394  1
  Al  Al20  1  0.91860801  0.83398766  0.00291593  1
  Al  Al21  1  0.95872789  0.41669304  0.50317674  1
  Al  Al22  1  0.89639764  0.04115878  0.50309111  1
  Al  Al23  1  0.52008944  0.79829787  0.51046812  1
  Al  Al24  1  0.73370923  0.71172059  0.00098210  1
  Al  Al25  1  0.85516324  0.45850877  0.00318339  1
  Al  Al26  1  0.83510451  0.66731544  0.50245719  1
  Al  Al27  1  0.64970737  0.54147089  0.51023411  1
  Al  Al28  1  0.77231908  0.29076160  0.50243008  1
  Al  Al29  1  0.58370071  0.16935025  0.50245059  1
  Al  Al30  1  0.70881380  0.91715829  0.50318981  1
  N  N31  1  0.22861688  0.70807768  0.62115617  1
  N  N32  1  0.35178214  0.45690833  0.62187286  1
  N  N33  1  0.04160028  0.58350884  0.62145293  1
  N  N34  1  0.16527491  0.33327836  0.62151185  1
  N  N35  1  0.29055556  0.08352761  0.62104276  1
  N  N36  1  0.47868307  0.20469384  0.62150667  1
  N  N37  1  0.10412867  0.95866408  0.62143757  1
  N  N38  1  0.41485002  0.83334454  0.62182496  1
  N  N39  1  0.33243713  0.66508476  0.12131108  1
  N  N40  1  0.44877289  0.39916778  0.12715292  1
  N  N41  1  0.14538191  0.54157359  0.12139001  1
  N  N42  1  0.26725399  0.28991215  0.12158828  1
  N  N43  1  0.39283539  0.04026121  0.12150491  1
  N  N44  1  0.08242194  0.16572819  0.12150743  1
  N  N45  1  0.20775128  0.91593446  0.12122708  1
  N  N46  1  0.02185081  0.79166579  0.12166026  1
  N  N47  1  0.73153875  0.71074986  0.62196692  1
  N  N48  1  0.85475803  0.45853841  0.62104243  1
  N  N49  1  0.54179861  0.58311904  0.56846514  1
  N  N50  1  0.66841346  0.33202164  0.62196729  1
  N  N51  1  0.79250830  0.08256283  0.62123931  1
  N  N52  1  0.97898105  0.20836910  0.62144510  1
  N  N53  1  0.60523752  0.96163102  0.62161019  1
  N  N54  1  0.91785104  0.83388821  0.62155288  1
  N  N55  1  0.83652478  0.66804880  0.12147245  1
  N  N56  1  0.95894694  0.41654706  0.12134231  1
  N  N57  1  0.65796109  0.53917875  0.12771357  1
  N  N58  1  0.77335579  0.28925053  0.12134684  1
  N  N59  1  0.89664314  0.04069549  0.12139326  1
  N  N60  1  0.58403633  0.17249895  0.12115609  1
  N  N61  1  0.70874728  0.91726632  0.12111726  1
  N  N62  1  0.51847800  0.81444112  0.12724370  1
  Ta  Ta63  1  0.54188008  0.58325216  0.04874633  1
