# generated using pymatgen
data_Al31OsN32
_symmetry_space_group_name_H-M   'P 1'
_cell_length_a   16.59402961
_cell_length_b   8.28769991
_cell_length_c   5.03253766
_cell_angle_alpha   89.99288907
_cell_angle_beta   89.99633947
_cell_angle_gamma   98.15795555
_symmetry_Int_Tables_number   1
_chemical_formula_structural   Al31OsN32
_chemical_formula_sum   'Al31 Os1 N32'
_cell_volume   685.10278257
_cell_formula_units_Z   1
loop_
 _symmetry_equiv_pos_site_id
 _symmetry_equiv_pos_as_xyz
  1  'x, y, z'
loop_
 _atom_site_type_symbol
 _atom_site_label
 _atom_site_symmetry_multiplicity
 _atom_site_fract_x
 _atom_site_fract_y
 _atom_site_fract_z
 _atom_site_occupancy
  Al  Al0  1  0.16515704  0.33286437  0.00069244  1
  Al  Al1  1  0.29064508  0.08350973  0.00081354  1
  Al  Al2  1  0.47829487  0.20171279  0.99882202  1
  Al  Al3  1  0.10420929  0.95854862  0.00093266  1
  Al  Al4  1  0.41401052  0.83302336  0.99911354  1
  Al  Al5  1  0.45650226  0.41378441  0.51178227  1
  Al  Al6  1  0.39503311  0.04073506  0.50080197  1
  Al  Al7  1  0.02124639  0.79194616  0.50090741  1
  Al  Al8  1  0.22832361  0.70816271  0.00116341  1
  Al  Al9  1  0.35018087  0.45641540  0.99902140  1
  Al  Al10  1  0.04160734  0.58353228  0.00098730  1
  Al  Al11  1  0.33272243  0.66584322  0.50182175  1
  Al  Al12  1  0.14546874  0.54159619  0.50100929  1
  Al  Al13  1  0.26963516  0.29097131  0.50058823  1
  Al  Al14  1  0.08294133  0.16652599  0.50090148  1
  Al  Al15  1  0.20805823  0.91654727  0.50088461  1
  Al  Al16  1  0.66895856  0.33097211  0.99881292  1
  Al  Al17  1  0.79292027  0.08357899  0.00101532  1
  Al  Al18  1  0.97909481  0.20862811  0.00091839  1
  Al  Al19  1  0.60602399  0.96271252  0.99944876  1
  Al  Al20  1  0.91810507  0.83431335  0.00074072  1
  Al  Al21  1  0.95848223  0.41697604  0.50098654  1
  Al  Al22  1  0.89629756  0.04185908  0.50097000  1
  Al  Al23  1  0.52061446  0.79417994  0.51146531  1
  Al  Al24  1  0.73271951  0.71278781  0.99933698  1
  Al  Al25  1  0.85478403  0.45917101  0.00103431  1
  Al  Al26  1  0.83435355  0.66768042  0.50086589  1
  Al  Al27  1  0.64792392  0.54246070  0.51171488  1
  Al  Al28  1  0.77165585  0.29184709  0.50103619  1
  Al  Al29  1  0.58359681  0.16797236  0.50176777  1
  Al  Al30  1  0.70886805  0.91760704  0.50208344  1
  N  N31  1  0.22862335  0.70815036  0.62021285  1
  N  N32  1  0.35224490  0.45762130  0.62213589  1
  N  N33  1  0.04156044  0.58351519  0.62006981  1
  N  N34  1  0.16575562  0.33320096  0.62010188  1
  N  N35  1  0.29110683  0.08324770  0.61996797  1
  N  N36  1  0.47902312  0.20512913  0.62174593  1
  N  N37  1  0.10418349  0.95861744  0.62004384  1
  N  N38  1  0.41532456  0.83248318  0.62195970  1
  N  N39  1  0.33228419  0.66542566  0.12134106  1
  N  N40  1  0.44890886  0.39973310  0.13078462  1
  N  N41  1  0.14538003  0.54155888  0.12006109  1
  N  N42  1  0.26819274  0.29009030  0.12053877  1
  N  N43  1  0.39406371  0.03989470  0.12104183  1
  N  N44  1  0.08265342  0.16613504  0.12013491  1
  N  N45  1  0.20796046  0.91636490  0.12000580  1
  N  N46  1  0.02156914  0.79192290  0.12021197  1
  N  N47  1  0.73087635  0.71104649  0.62237814  1
  N  N48  1  0.85450216  0.45897079  0.62004446  1
  N  N49  1  0.54165048  0.58237256  0.60099789  1
  N  N50  1  0.66762085  0.33216623  0.62189282  1
  N  N51  1  0.79241448  0.08365315  0.62045660  1
  N  N52  1  0.97911348  0.20870556  0.62009058  1
  N  N53  1  0.60520895  0.96014480  0.62208214  1
  N  N54  1  0.91750798  0.83409539  0.62017478  1
  N  N55  1  0.83565998  0.66836954  0.12056514  1
  N  N56  1  0.95862215  0.41691773  0.12002843  1
  N  N57  1  0.65705436  0.54036549  0.13103642  1
  N  N58  1  0.77245595  0.29096138  0.12066806  1
  N  N59  1  0.89649937  0.04163725  0.12017702  1
  N  N60  1  0.58377296  0.17006358  0.12112262  1
  N  N61  1  0.70914231  0.91826579  0.12147119  1
  N  N62  1  0.51910617  0.81063065  0.13008627  1
  Os  Os63  1  0.54152226  0.58007740  0.07392872  1
