# generated using pymatgen
data_Al31WN32
_symmetry_space_group_name_H-M   'P 1'
_cell_length_a   16.61337267
_cell_length_b   8.30402642
_cell_length_c   5.02216330
_cell_angle_alpha   90.00054211
_cell_angle_beta   89.99474327
_cell_angle_gamma   98.20251074
_symmetry_Int_Tables_number   1
_chemical_formula_structural   Al31WN32
_chemical_formula_sum   'Al31 W1 N32'
_cell_volume   685.75918788
_cell_formula_units_Z   1
loop_
 _symmetry_equiv_pos_site_id
 _symmetry_equiv_pos_as_xyz
  1  'x, y, z'
loop_
 _atom_site_type_symbol
 _atom_site_label
 _atom_site_symmetry_multiplicity
 _atom_site_fract_x
 _atom_site_fract_y
 _atom_site_fract_z
 _atom_site_occupancy
  Al  Al0  1  0.16493209  0.33268334  0.00125687  1
  Al  Al1  1  0.29025913  0.08369098  0.00143592  1
  Al  Al2  1  0.47792265  0.20165969  0.99995180  1
  Al  Al3  1  0.10419314  0.95821637  0.00142651  1
  Al  Al4  1  0.41360177  0.83507055  0.99956756  1
  Al  Al5  1  0.45622139  0.41309171  0.51209207  1
  Al  Al6  1  0.39467250  0.04116005  0.50107024  1
  Al  Al7  1  0.02131597  0.79158402  0.50137430  1
  Al  Al8  1  0.22843471  0.70792894  0.00149506  1
  Al  Al9  1  0.34992321  0.45555056  0.99970375  1
  Al  Al10  1  0.04168748  0.58326277  0.00145734  1
  Al  Al11  1  0.33289764  0.66571869  0.50197252  1
  Al  Al12  1  0.14549742  0.54141822  0.50146574  1
  Al  Al13  1  0.26933594  0.29075285  0.50111680  1
  Al  Al14  1  0.08287157  0.16614288  0.50140491  1
  Al  Al15  1  0.20799774  0.91620558  0.50137780  1
  Al  Al16  1  0.66970508  0.33107960  0.99970333  1
  Al  Al17  1  0.79292248  0.08268591  0.00126705  1
  Al  Al18  1  0.97902933  0.20815684  0.00142443  1
  Al  Al19  1  0.60571163  0.96514527  0.99975220  1
  Al  Al20  1  0.91831449  0.83392826  0.00125135  1
  Al  Al21  1  0.95860708  0.41659488  0.50146197  1
  Al  Al22  1  0.89628145  0.04128519  0.50144130  1
  Al  Al23  1  0.52030750  0.79642381  0.51225538  1
  Al  Al24  1  0.73332962  0.71215026  0.99971899  1
  Al  Al25  1  0.85496545  0.45860033  0.00158205  1
  Al  Al26  1  0.83462076  0.66726005  0.50132692  1
  Al  Al27  1  0.64855436  0.54182122  0.51221640  1
  Al  Al28  1  0.77193197  0.29121640  0.50141377  1
  Al  Al29  1  0.58358822  0.16908463  0.50201808  1
  Al  Al30  1  0.70860784  0.91712253  0.50219017  1
  N  N31  1  0.22872709  0.70795685  0.61989346  1
  N  N32  1  0.35211051  0.45730412  0.62181340  1
  N  N33  1  0.04161964  0.58331808  0.61996619  1
  N  N34  1  0.16556763  0.33307814  0.62010798  1
  N  N35  1  0.29079539  0.08334815  0.62009737  1
  N  N36  1  0.47886052  0.20517897  0.62179012  1
  N  N37  1  0.10415918  0.95839532  0.61996539  1
  N  N38  1  0.41499535  0.83325363  0.62185249  1
  N  N39  1  0.33257672  0.66528427  0.12071248  1
  N  N40  1  0.44924477  0.39995723  0.12856492  1
  N  N41  1  0.14545013  0.54137012  0.11992613  1
  N  N42  1  0.26783371  0.28999508  0.12067334  1
  N  N43  1  0.39334554  0.04049542  0.12121676  1
  N  N44  1  0.08256756  0.16565778  0.12004764  1
  N  N45  1  0.20788413  0.91592222  0.11990152  1
  N  N46  1  0.02167496  0.79148929  0.12015436  1
  N  N47  1  0.73113702  0.71086808  0.62191459  1
  N  N48  1  0.85465161  0.45863610  0.61996617  1
  N  N49  1  0.54173188  0.58330017  0.59575008  1
  N  N50  1  0.66801868  0.33215221  0.62201571  1
  N  N51  1  0.79236856  0.08293473  0.62012880  1
  N  N52  1  0.97905633  0.20832330  0.61998273  1
  N  N53  1  0.60520026  0.96133858  0.62176743  1
  N  N54  1  0.91763706  0.83379305  0.62015218  1
  N  N55  1  0.83600695  0.66792667  0.12057208  1
  N  N56  1  0.95879968  0.41646237  0.11993428  1
  N  N57  1  0.65727542  0.53942288  0.12904421  1
  N  N58  1  0.77292325  0.28982650  0.12058613  1
  N  N59  1  0.89649518  0.04088677  0.12002045  1
  N  N60  1  0.58391689  0.17173850  0.12122521  1
  N  N61  1  0.70869335  0.91745646  0.12061810  1
  N  N62  1  0.51864492  0.81334138  0.12861253  1
  W  W63  1  0.54178854  0.58289520  0.07383318  1
