# generated using pymatgen
data_Al31OsN32
_symmetry_space_group_name_H-M   'P 1'
_cell_length_a   8.16369708
_cell_length_b   8.16369708
_cell_length_c   8.16369708
_cell_angle_alpha   90.00000000
_cell_angle_beta   90.00000000
_cell_angle_gamma   90.00000000
_symmetry_Int_Tables_number   1
_chemical_formula_structural   Al31OsN32
_chemical_formula_sum   'Al31 Os1 N32'
_cell_volume   544.07734752
_cell_formula_units_Z   1
loop_
 _symmetry_equiv_pos_site_id
 _symmetry_equiv_pos_as_xyz
  1  'x, y, z'
loop_
 _atom_site_type_symbol
 _atom_site_label
 _atom_site_symmetry_multiplicity
 _atom_site_fract_x
 _atom_site_fract_y
 _atom_site_fract_z
 _atom_site_occupancy
  Al  Al0  1  0.00000000  0.00000000  0.00000000  1
  Al  Al1  1  -0.00000119  0.24994937  0.24995691  1
  Al  Al2  1  0.24997305  -0.00018741  0.24997255  1
  Al  Al3  1  0.24995773  0.24994967  -0.00000290  1
  Al  Al4  1  0.00000000  0.00000000  0.50000000  1
  Al  Al5  1  -0.00018455  0.24996599  0.75002650  1
  Al  Al6  1  0.24995615  0.00000171  0.75004435  1
  Al  Al7  1  0.24908705  0.24907478  0.49999675  1
  Al  Al8  1  0.00000000  0.50000000  0.00000000  1
  Al  Al9  1  0.00018455  0.75003401  0.24997350  1
  Al  Al10  1  0.24844638  0.49949757  0.24844355  1
  Al  Al11  1  0.24997403  0.75003396  0.00018618  1
  Al  Al12  1  0.00000000  0.50000000  0.50000000  1
  Al  Al13  1  0.00000119  0.75005063  0.75004309  1
  Al  Al14  1  0.24907116  0.49999815  0.75093165  1
  Al  Al15  1  0.24845321  0.75155881  0.50049735  1
  Al  Al16  1  0.50000000  0.00000000  0.00000000  1
  Al  Al17  1  0.49999493  0.24908035  0.24908980  1
  Al  Al18  1  0.75004385  -0.00000171  0.24995565  1
  Al  Al19  1  0.75002597  0.24996604  -0.00018618  1
  Al  Al20  1  0.50000000  0.00000000  0.50000000  1
  Al  Al21  1  0.49950106  0.24844810  0.75154266  1
  Al  Al22  1  0.75002695  0.00018741  0.75002745  1
  Al  Al23  1  0.75154679  0.24844119  0.49950265  1
  Al  Al24  1  0.50000000  0.50000000  0.00000000  1
  Al  Al25  1  0.50049894  0.75155190  0.24845734  1
  Al  Al26  1  0.75092884  0.50000185  0.24906835  1
  Al  Al27  1  0.75004227  0.75005033  0.00000290  1
  Al  Al28  1  0.50000507  0.75091965  0.75091020  1
  Al  Al29  1  0.75155362  0.50050243  0.75155645  1
  Al  Al30  1  0.75091295  0.75092522  0.50000325  1
  N  N31  1  0.25066229  0.25013313  0.25066445  1
  N  N32  1  0.24966109  0.00013469  -0.00013315  1
  N  N33  1  0.00013476  0.24966666  0.00013549  1
  N  N34  1  -0.00013318  0.00013549  0.24966223  1
  N  N35  1  0.25012632  0.25066558  0.74933477  1
  N  N36  1  0.24887696  0.00010396  0.50003485  1
  N  N37  1  0.00010382  0.24888483  0.49996492  1
  N  N38  1  0.00013318  -0.00013549  0.75033777  1
  N  N39  1  0.25005296  0.74993923  0.25005452  1
  N  N40  1  0.24888264  0.49996572  -0.00010302  1
  N  N41  1  -0.00013476  0.75033334  -0.00013549  1
  N  N42  1  -0.00010240  0.49996486  0.24888545  1
  N  N43  1  0.25066279  0.74933464  0.74987274  1
  N  N44  1  0.24036653  0.50080793  0.49920364  1
  N  N45  1  -0.00010382  0.75111517  0.50003508  1
  N  N46  1  0.00010240  0.50003514  0.75111455  1
  N  N47  1  0.74933721  0.25066536  0.25012726  1
  N  N48  1  0.75033891  -0.00013469  0.00013315  1
  N  N49  1  0.49996584  0.24887903  0.00010516  1
  N  N50  1  0.50003480  0.00010461  0.24887393  1
  N  N51  1  0.74994704  0.25006077  0.74994548  1
  N  N52  1  0.75112304  -0.00010396  0.49996515  1
  N  N53  1  0.50080824  0.24032453  0.50080561  1
  N  N54  1  0.49996520  -0.00010461  0.75112607  1
  N  N55  1  0.74987368  0.74933442  0.25066523  1
  N  N56  1  0.75111736  0.50003428  0.00010302  1
  N  N57  1  0.50003416  0.75112097  -0.00010516  1
  N  N58  1  0.49920253  0.50080662  0.24034352  1
  N  N59  1  0.74933771  0.74986687  0.74933555  1
  N  N60  1  0.75963347  0.49919207  0.50079636  1
  N  N61  1  0.49919176  0.75967547  0.49919439  1
  N  N62  1  0.50079747  0.49919338  0.75965648  1
  Os  Os63  1  0.50000000  0.50000000  0.50000000  1
