# generated using pymatgen
data_Ti11AlN12
_symmetry_space_group_name_H-M   'P 1'
_cell_length_a   4.20860387
_cell_length_b   6.09431422
_cell_length_c   10.46418401
_cell_angle_alpha   90.00000356
_cell_angle_beta   90.00000000
_cell_angle_gamma   89.99790995
_symmetry_Int_Tables_number   1
_chemical_formula_structural   Ti11AlN12
_chemical_formula_sum   'Ti11 Al1 N12'
_cell_volume   268.39119295
_cell_formula_units_Z   1
loop_
 _symmetry_equiv_pos_site_id
 _symmetry_equiv_pos_as_xyz
  1  'x, y, z'
loop_
 _atom_site_type_symbol
 _atom_site_label
 _atom_site_symmetry_multiplicity
 _atom_site_fract_x
 _atom_site_fract_y
 _atom_site_fract_z
 _atom_site_occupancy
  Ti  Ti0  1  0.06257524  0.16865033  0.83245863  1
  Ti  Ti1  1  0.56240769  0.82944756  0.16666667  1
  Ti  Ti2  1  0.56237131  0.32825911  -0.00054567  1
  Ti  Ti3  1  0.06233620  0.15919403  0.16666667  1
  Ti  Ti4  1  0.06251077  0.66309374  0.33462093  1
  Ti  Ti5  1  0.06257524  0.16865033  0.50087470  1
  Ti  Ti6  1  0.06272443  0.67350883  0.66666667  1
  Ti  Ti7  1  0.06251077  0.66309374  0.99871240  1
  Ti  Ti8  1  0.56237131  0.32825911  0.33387900  1
  Ti  Ti9  1  0.56258082  0.83779718  0.49903922  1
  Ti  Ti10  1  0.56258082  0.83779718  0.83429411  1
  N  N11  1  0.56233623  0.16224141  0.16666667  1
  N  N12  1  0.56249755  0.65793574  0.33722215  1
  N  N13  1  0.56252587  0.17958458  0.51149735  1
  N  N14  1  0.56272429  0.65881547  0.66666667  1
  N  N15  1  0.56252587  0.17958458  0.82183598  1
  N  N16  1  0.56249755  0.65793574  0.99611118  1
  N  N17  1  0.06231251  0.82459446  0.16666667  1
  N  N18  1  0.06234460  0.32801885  0.33312303  1
  N  N19  1  0.06254704  0.83981184  0.49968579  1
  N  N20  1  0.06263047  0.34365749  0.66666667  1
  N  N21  1  0.06254704  0.83981184  0.83364754  1
  N  N22  1  0.06234460  0.32801885  0.00021030  1
  Al  Al23  1  0.56262177  0.34223800  0.66666667  1
