# generated using pymatgen
data_Al31SiN32
_symmetry_space_group_name_H-M   'P 1'
_cell_length_a   16.54502277
_cell_length_b   8.27081574
_cell_length_c   5.03114685
_cell_angle_alpha   89.99893049
_cell_angle_beta   89.99719030
_cell_angle_gamma   98.23086219
_symmetry_Int_Tables_number   1
_chemical_formula_structural   Al31SiN32
_chemical_formula_sum   'Al31 Si1 N32'
_cell_volume   681.37462082
_cell_formula_units_Z   1
loop_
 _symmetry_equiv_pos_site_id
 _symmetry_equiv_pos_as_xyz
  1  'x, y, z'
loop_
 _atom_site_type_symbol
 _atom_site_label
 _atom_site_symmetry_multiplicity
 _atom_site_fract_x
 _atom_site_fract_y
 _atom_site_fract_z
 _atom_site_occupancy
  Al  Al0  1  0.16688178  0.33352493  0.00302556  1
  Al  Al1  1  0.29180751  0.08341459  0.00223322  1
  Al  Al2  1  0.47982007  0.20702085  0.99985259  1
  Al  Al3  1  0.10397613  0.95831960  0.00281390  1
  Al  Al4  1  0.41615175  0.83290486  0.00093153  1
  Al  Al5  1  0.45828993  0.41715764  0.50758475  1
  Al  Al6  1  0.39561587  0.04198855  0.50256057  1
  Al  Al7  1  0.02073577  0.79152091  0.50303656  1
  Al  Al8  1  0.22858704  0.70858943  0.00212604  1
  Al  Al9  1  0.35385090  0.45987875  0.00064005  1
  Al  Al10  1  0.04157169  0.58332377  0.00286962  1
  Al  Al11  1  0.33276424  0.66712643  0.50133059  1
  Al  Al12  1  0.14569815  0.54144601  0.50278972  1
  Al  Al13  1  0.27078050  0.29121203  0.50282742  1
  Al  Al14  1  0.08343445  0.16661412  0.50299785  1
  Al  Al15  1  0.20802790  0.91663398  0.50256464  1
  Al  Al16  1  0.66622469  0.33138553  0.00116699  1
  Al  Al17  1  0.79201283  0.08429768  0.00241948  1
  Al  Al18  1  0.97935742  0.20857293  0.00283956  1
  Al  Al19  1  0.60489633  0.95711243  0.00009581  1
  Al  Al20  1  0.91648925  0.83348940  0.00302745  1
  Al  Al21  1  0.95852514  0.41658123  0.50268582  1
  Al  Al22  1  0.89605857  0.04192505  0.50285156  1
  Al  Al23  1  0.52076330  0.79134496  0.50758916  1
  Al  Al24  1  0.72920568  0.70967509  0.00072010  1
  Al  Al25  1  0.85410923  0.45854006  0.00203665  1
  Al  Al26  1  0.83359905  0.66636095  0.50264741  1
  Al  Al27  1  0.64572841  0.54159853  0.50791796  1
  Al  Al28  1  0.77117672  0.29209461  0.50254693  1
  Al  Al29  1  0.58325646  0.16610842  0.50123006  1
  Al  Al30  1  0.70884090  0.91720955  0.50113764  1
  N  N31  1  0.22921954  0.70836453  0.62170107  1
  N  N32  1  0.35481497  0.45899228  0.62044479  1
  N  N33  1  0.04167967  0.58323153  0.62220448  1
  N  N34  1  0.16707678  0.33328266  0.62229397  1
  N  N35  1  0.29186176  0.08301914  0.62184786  1
  N  N36  1  0.47931196  0.20967751  0.61995246  1
  N  N37  1  0.10408830  0.95821499  0.62213096  1
  N  N38  1  0.41711395  0.83305604  0.62070328  1
  N  N39  1  0.33348293  0.66727050  0.12086859  1
  N  N40  1  0.46349853  0.42643408  0.11938355  1
  N  N41  1  0.14587680  0.54164618  0.12215188  1
  N  N42  1  0.27215554  0.29260809  0.12214658  1
  N  N43  1  0.39691950  0.04216216  0.12209970  1
  N  N44  1  0.08361231  0.16695410  0.12224807  1
  N  N45  1  0.20851687  0.91714981  0.12181296  1
  N  N46  1  0.02049967  0.79157394  0.12225947  1
  N  N47  1  0.72853946  0.70765626  0.62044763  1
  N  N48  1  0.85415292  0.45829695  0.62171713  1
  N  N49  1  0.54164790  0.58326865  0.64906466  1
  N  N50  1  0.66616448  0.33368101  0.62089500  1
  N  N51  1  0.79146848  0.08364213  0.62188928  1
  N  N52  1  0.97928181  0.20831994  0.62214791  1
  N  N53  1  0.60395794  0.95715254  0.61996791  1
  N  N54  1  0.91630398  0.83316729  0.62228276  1
  N  N55  1  0.83212531  0.66625566  0.12204712  1
  N  N56  1  0.95804129  0.41677456  0.12198082  1
  N  N57  1  0.63944335  0.54366153  0.11984436  1
  N  N58  1  0.76993812  0.29286122  0.12201263  1
  N  N59  1  0.89565704  0.04198846  0.12212769  1
  N  N60  1  0.58311896  0.16436528  0.12095016  1
  N  N61  1  0.70830713  0.91670409  0.12081856  1
  N  N62  1  0.52212040  0.77858897  0.11981615  1
  Si  Si63  1  0.54176466  0.58300504  0.00664340  1
