# generated using pymatgen
data_Ti11BN12
_symmetry_space_group_name_H-M   'P 1'
_cell_length_a   4.22275742
_cell_length_b   6.01205124
_cell_length_c   10.26555929
_cell_angle_alpha   90.00000346
_cell_angle_beta   90.00000000
_cell_angle_gamma   90.02366166
_symmetry_Int_Tables_number   1
_chemical_formula_structural   Ti11BN12
_chemical_formula_sum   'Ti11 B1 N12'
_cell_volume   260.61618667
_cell_formula_units_Z   1
loop_
 _symmetry_equiv_pos_site_id
 _symmetry_equiv_pos_as_xyz
  1  'x, y, z'
loop_
 _atom_site_type_symbol
 _atom_site_label
 _atom_site_symmetry_multiplicity
 _atom_site_fract_x
 _atom_site_fract_y
 _atom_site_fract_z
 _atom_site_occupancy
  Ti  Ti0  1  0.06226255  0.16489535  0.82778971  1
  Ti  Ti1  1  0.56341446  0.84053511  0.16666667  1
  Ti  Ti2  1  0.56362651  0.33216155  0.99013847  1
  Ti  Ti3  1  0.06344827  0.17007321  0.16666667  1
  Ti  Ti4  1  0.06398565  0.66929597  0.33569665  1
  Ti  Ti5  1  0.06226255  0.16489535  0.50554362  1
  Ti  Ti6  1  0.06388121  0.65390176  0.66666667  1
  Ti  Ti7  1  0.06398565  0.66929597  0.99763668  1
  Ti  Ti8  1  0.56362651  0.33216155  0.34319486  1
  Ti  Ti9  1  0.56441304  0.83327632  0.50879898  1
  Ti  Ti10  1  0.56441304  0.83327632  0.82453435  1
  N  N11  1  0.56352453  0.17733980  0.16666667  1
  N  N12  1  0.56355203  0.66515980  0.33890901  1
  N  N13  1  0.56824427  0.19563338  0.53449795  1
  N  N14  1  0.56853042  0.60462541  0.66666667  1
  N  N15  1  0.56824427  0.19563338  0.79883538  1
  N  N16  1  0.56355203  0.66515980  0.99442432  1
  N  N17  1  0.06370590  0.83591581  0.16666667  1
  N  N18  1  0.06294045  0.33341636  0.33904022  1
  N  N19  1  0.06197870  0.83515375  0.50584027  1
  N  N20  1  0.11102866  0.33212993  0.66666667  1
  N  N21  1  0.06197870  0.83515375  0.82749306  1
  N  N22  1  0.06294045  0.33341636  0.99429311  1
  B  B23  1  0.48046016  0.32749404  0.66666667  1
