# generated using pymatgen
data_YAl31N32
_symmetry_space_group_name_H-M   'P 1'
_cell_length_a   16.68061295
_cell_length_b   8.33088073
_cell_length_c   5.03086384
_cell_angle_alpha   89.99628210
_cell_angle_beta   89.99601322
_cell_angle_gamma   98.17496843
_symmetry_Int_Tables_number   1
_chemical_formula_structural   YAl31N32
_chemical_formula_sum   'Y1 Al31 N32'
_cell_volume   692.00590807
_cell_formula_units_Z   1
loop_
 _symmetry_equiv_pos_site_id
 _symmetry_equiv_pos_as_xyz
  1  'x, y, z'
loop_
 _atom_site_type_symbol
 _atom_site_label
 _atom_site_symmetry_multiplicity
 _atom_site_fract_x
 _atom_site_fract_y
 _atom_site_fract_z
 _atom_site_occupancy
  Al  Al0  1  0.16334430  0.33269036  0.00332053  1
  Al  Al1  1  0.28860332  0.08373525  0.00462191  1
  Al  Al2  1  0.47579209  0.19864162  0.00554582  1
  Al  Al3  1  0.10415287  0.95851215  0.00354369  1
  Al  Al4  1  0.41249051  0.83700793  0.00412747  1
  Al  Al5  1  0.45340683  0.40817504  0.49853372  1
  Al  Al6  1  0.39356502  0.04047648  0.50381652  1
  Al  Al7  1  0.02170551  0.79194052  0.50315892  1
  Al  Al8  1  0.22818547  0.70763423  0.00414247  1
  Al  Al9  1  0.34758978  0.45171585  0.00427980  1
  Al  Al10  1  0.04185150  0.58372318  0.00353159  1
  Al  Al11  1  0.33216159  0.66515351  0.50456942  1
  Al  Al12  1  0.14515117  0.54173339  0.50354983  1
  Al  Al13  1  0.26797458  0.29038871  0.50346468  1
  Al  Al14  1  0.08243651  0.16625504  0.50325238  1
  Al  Al15  1  0.20759426  0.91616193  0.50382102  1
  Al  Al16  1  0.67275694  0.33172105  0.00425968  1
  Al  Al17  1  0.79370673  0.08102396  0.00374920  1
  Al  Al18  1  0.97885041  0.20804283  0.00348351  1
  Al  Al19  1  0.60550570  0.97008805  0.00449504  1
  Al  Al20  1  0.91977626  0.83443168  0.00317941  1
  Al  Al21  1  0.95889782  0.41680799  0.50359252  1
  Al  Al22  1  0.89668098  0.04097878  0.50355119  1
  Al  Al23  1  0.51968138  0.80232053  0.49846924  1
  Al  Al24  1  0.73618330  0.71216464  0.00399112  1
  Al  Al25  1  0.85598157  0.45851526  0.00452296  1
  Al  Al26  1  0.83578099  0.66772514  0.50341049  1
  Al  Al27  1  0.65219321  0.54111451  0.49839185  1
  Al  Al28  1  0.77287912  0.29044730  0.50394521  1
  Al  Al29  1  0.58389642  0.16993759  0.50492743  1
  Al  Al30  1  0.70913652  0.91751749  0.50489811  1
  N  N31  1  0.22835004  0.70798208  0.62223905  1
  N  N32  1  0.35139605  0.45655019  0.62407982  1
  N  N33  1  0.04155710  0.58373732  0.62210394  1
  N  N34  1  0.16462180  0.33341431  0.62246010  1
  N  N35  1  0.29003655  0.08354888  0.62301655  1
  N  N36  1  0.47862158  0.20428981  0.62431309  1
  N  N37  1  0.10407739  0.95893028  0.62212914  1
  N  N38  1  0.41467730  0.83231114  0.62412103  1
  N  N39  1  0.33231054  0.66402685  0.12240860  1
  N  N40  1  0.44429053  0.39154321  0.12756663  1
  N  N41  1  0.14516442  0.54167408  0.12221271  1
  N  N42  1  0.26495711  0.28859792  0.12336231  1
  N  N43  1  0.39067207  0.03925882  0.12417655  1
  N  N44  1  0.08183710  0.16521730  0.12212469  1
  N  N45  1  0.20725238  0.91518433  0.12249810  1
  N  N46  1  0.02245890  0.79176083  0.12236727  1
  N  N47  1  0.73195102  0.71124866  0.62401698  1
  N  N48  1  0.85499353  0.45867668  0.62238608  1
  N  N49  1  0.54195397  0.58290399  0.55512780  1
  N  N50  1  0.66876821  0.33230267  0.62444437  1
  N  N51  1  0.79289128  0.08226304  0.62265616  1
  N  N52  1  0.97885880  0.20845808  0.62209860  1
  N  N53  1  0.60544528  0.96151845  0.62385488  1
  N  N54  1  0.91835915  0.83414206  0.62244691  1
  N  N55  1  0.83865840  0.66888460  0.12282929  1
  N  N56  1  0.95945879  0.41654370  0.12213544  1
  N  N57  1  0.66378307  0.53842963  0.12799221  1
  N  N58  1  0.77504502  0.28759962  0.12315700  1
  N  N59  1  0.89704965  0.04010808  0.12230285  1
  N  N60  1  0.58431345  0.17738202  0.12289515  1
  N  N61  1  0.70863003  0.91717582  0.12219518  1
  N  N62  1  0.51746073  0.82497395  0.12670221  1
  Y  Y63  1  0.54218606  0.58257958  0.01543265  1
