# generated using pymatgen
data_Al31CoN32
_symmetry_space_group_name_H-M   'P 1'
_cell_length_a   16.56229331
_cell_length_b   8.28056648
_cell_length_c   5.02099006
_cell_angle_alpha   89.99886772
_cell_angle_beta   90.00086988
_cell_angle_gamma   98.21308642
_symmetry_Int_Tables_number   1
_chemical_formula_structural   Al31CoN32
_chemical_formula_sum   'Al31 Co1 N32'
_cell_volume   681.54195514
_cell_formula_units_Z   1
loop_
 _symmetry_equiv_pos_site_id
 _symmetry_equiv_pos_as_xyz
  1  'x, y, z'
loop_
 _atom_site_type_symbol
 _atom_site_label
 _atom_site_symmetry_multiplicity
 _atom_site_fract_x
 _atom_site_fract_y
 _atom_site_fract_z
 _atom_site_occupancy
  Al  Al0  1  0.16630884  0.33339172  0.00302422  1
  Al  Al1  1  0.29144949  0.08365184  0.00303670  1
  Al  Al2  1  0.47931083  0.20678502  0.00269816  1
  Al  Al3  1  0.10417359  0.95847783  0.00311694  1
  Al  Al4  1  0.41590339  0.83299750  0.00260085  1
  Al  Al5  1  0.45792259  0.41578425  0.50519825  1
  Al  Al6  1  0.39565373  0.04153533  0.50281322  1
  Al  Al7  1  0.02091749  0.79171436  0.50310854  1
  Al  Al8  1  0.22890210  0.70843233  0.00315320  1
  Al  Al9  1  0.35341272  0.45843398  0.00265336  1
  Al  Al10  1  0.04160203  0.58338899  0.00311959  1
  Al  Al11  1  0.33321334  0.66651920  0.50310478  1
  Al  Al12  1  0.14573452  0.54170820  0.50314532  1
  Al  Al13  1  0.27058829  0.29162183  0.50293016  1
  Al  Al14  1  0.08325375  0.16668180  0.50310575  1
  Al  Al15  1  0.20829302  0.91675312  0.50309728  1
  Al  Al16  1  0.66697171  0.33244631  0.00257715  1
  Al  Al17  1  0.79201999  0.08329425  0.00301778  1
  Al  Al18  1  0.97915232  0.20845869  0.00310548  1
  Al  Al19  1  0.60477754  0.95894380  0.00271377  1
  Al  Al20  1  0.91701019  0.83356072  0.00301155  1
  Al  Al21  1  0.95833531  0.41672240  0.50311261  1
  Al  Al22  1  0.89594458  0.04163981  0.50310008  1
  Al  Al23  1  0.52071488  0.79249444  0.50525517  1
  Al  Al24  1  0.72982747  0.70947289  0.00264925  1
  Al  Al25  1  0.85420702  0.45849001  0.00312994  1
  Al  Al26  1  0.83353633  0.66678789  0.50297271  1
  Al  Al27  1  0.64636725  0.54155937  0.50519534  1
  Al  Al28  1  0.77100186  0.29158333  0.50297074  1
  Al  Al29  1  0.58339944  0.16681560  0.50298604  1
  Al  Al30  1  0.70844018  0.91671074  0.50314067  1
  N  N31  1  0.22903717  0.70836581  0.62178945  1
  N  N32  1  0.35378547  0.45822289  0.62221467  1
  N  N33  1  0.04161256  0.58337988  0.62180515  1
  N  N34  1  0.16646227  0.33339801  0.62175969  1
  N  N35  1  0.29153911  0.08347012  0.62166029  1
  N  N36  1  0.47917160  0.20753586  0.62214562  1
  N  N37  1  0.10415230  0.95844409  0.62179476  1
  N  N38  1  0.41631529  0.83326068  0.62221290  1
  N  N39  1  0.33292851  0.66646354  0.12207290  1
  N  N40  1  0.45597032  0.41196227  0.12435286  1
  N  N41  1  0.14567054  0.54172920  0.12180148  1
  N  N42  1  0.27019602  0.29156527  0.12180115  1
  N  N43  1  0.39533471  0.04124190  0.12179349  1
  N  N44  1  0.08318182  0.16661728  0.12180532  1
  N  N45  1  0.20823451  0.91675740  0.12176113  1
  N  N46  1  0.02101212  0.79174645  0.12182419  1
  N  N47  1  0.72953900  0.70877426  0.62225338  1
  N  N48  1  0.85420617  0.45842073  0.62171201  1
  N  N49  1  0.54167762  0.58319065  0.61133367  1
  N  N50  1  0.66689370  0.33291551  0.62219407  1
  N  N51  1  0.79183189  0.08326938  0.62177381  1
  N  N52  1  0.97915218  0.20842884  0.62179991  1
  N  N53  1  0.60442207  0.95869565  0.62227365  1
  N  N54  1  0.91684189  0.83344635  0.62176006  1
  N  N55  1  0.83387856  0.66711015  0.12179707  1
  N  N56  1  0.95835933  0.41672551  0.12177147  1
  N  N57  1  0.64880395  0.54081226  0.12442978  1
  N  N58  1  0.77123476  0.29122477  0.12177891  1
  N  N59  1  0.89604955  0.04162618  0.12179681  1
  N  N60  1  0.58360030  0.16698456  0.12208443  1
  N  N61  1  0.70865949  0.91703112  0.12208074  1
  N  N62  1  0.52023290  0.79720316  0.12443256  1
  Co  Co63  1  0.54166649  0.58312275  0.00328797  1
