# generated using pymatgen
data_Al31BN32
_symmetry_space_group_name_H-M   'P 1'
_cell_length_a   16.47265554
_cell_length_b   8.23329373
_cell_length_c   4.98398544
_cell_angle_alpha   89.99419295
_cell_angle_beta   90.00201513
_cell_angle_gamma   98.19764693
_symmetry_Int_Tables_number   1
_chemical_formula_structural   Al31BN32
_chemical_formula_sum   'Al31 B1 N32'
_cell_volume   669.04230346
_cell_formula_units_Z   1
loop_
 _symmetry_equiv_pos_site_id
 _symmetry_equiv_pos_as_xyz
  1  'x, y, z'
loop_
 _atom_site_type_symbol
 _atom_site_label
 _atom_site_symmetry_multiplicity
 _atom_site_fract_x
 _atom_site_fract_y
 _atom_site_fract_z
 _atom_site_occupancy
  Al  Al0  1  0.16908660  0.33392034  0.00335564  1
  Al  Al1  1  0.29394089  0.08310755  0.00256132  1
  Al  Al2  1  0.48148636  0.21534663  0.00244506  1
  Al  Al3  1  0.10417903  0.95834205  0.00332881  1
  Al  Al4  1  0.42009994  0.82930839  0.00296216  1
  Al  Al5  1  0.46200242  0.42308515  0.50755569  1
  Al  Al6  1  0.39748446  0.04223827  0.50271756  1
  Al  Al7  1  0.02015042  0.79158501  0.50353194  1
  Al  Al8  1  0.22992207  0.70894169  0.00272186  1
  Al  Al9  1  0.35947037  0.46354536  0.00301487  1
  Al  Al10  1  0.04150681  0.58316041  0.00336687  1
  Al  Al11  1  0.33420636  0.66773081  0.50248729  1
  Al  Al12  1  0.14631544  0.54165994  0.50324988  1
  Al  Al13  1  0.27310538  0.29267403  0.50318063  1
  Al  Al14  1  0.08399514  0.16713905  0.50347981  1
  Al  Al15  1  0.20885753  0.91717586  0.50303296  1
  Al  Al16  1  0.66215428  0.33524663  0.00291234  1
  Al  Al17  1  0.79004685  0.08494292  0.00274192  1
  Al  Al18  1  0.97931506  0.20865752  0.00337204  1
  Al  Al19  1  0.60295549  0.94907444  0.00258428  1
  Al  Al20  1  0.91447399  0.83280128  0.00339178  1
  Al  Al21  1  0.95783426  0.41667046  0.50327169  1
  Al  Al22  1  0.89517429  0.04225575  0.50316405  1
  Al  Al23  1  0.52176788  0.78317934  0.50746543  1
  Al  Al24  1  0.72379683  0.70554397  0.00308463  1
  Al  Al25  1  0.85266809  0.45848949  0.00270459  1
  Al  Al26  1  0.83145816  0.66597464  0.50301549  1
  Al  Al27  1  0.64115735  0.54220348  0.50768656  1
  Al  Al28  1  0.76924912  0.29277914  0.50272135  1
  Al  Al29  1  0.58284083  0.16428004  0.50201198  1
  Al  Al30  1  0.70771603  0.91606315  0.50211551  1
  N  N31  1  0.22981057  0.70856518  0.62068518  1
  N  N32  1  0.35639230  0.45989864  0.61988066  1
  N  N33  1  0.04171293  0.58299301  0.62091041  1
  N  N34  1  0.16826502  0.33326390  0.62055684  1
  N  N35  1  0.29292141  0.08304800  0.62024804  1
  N  N36  1  0.47958868  0.21132260  0.61955273  1
  N  N37  1  0.10421784  0.95787301  0.62090065  1
  N  N38  1  0.41838138  0.83339874  0.61958373  1
  N  N39  1  0.33422848  0.66854006  0.12070525  1
  N  N40  1  0.46940054  0.43696098  0.11664780  1
  N  N41  1  0.14633432  0.54188642  0.12075978  1
  N  N42  1  0.27518745  0.29413067  0.11999320  1
  N  N43  1  0.39929464  0.04247584  0.11946684  1
  N  N44  1  0.08434077  0.16794614  0.12084088  1
  N  N45  1  0.20908272  0.91791704  0.12057086  1
  N  N46  1  0.01968740  0.79186605  0.12071282  1
  N  N47  1  0.72693081  0.70624548  0.61983713  1
  N  N48  1  0.85341620  0.45806966  0.62067707  1
  N  N49  1  0.54157102  0.58326423  0.67217334  1
  N  N50  1  0.66492688  0.33412914  0.61949760  1
  N  N51  1  0.79065774  0.08409694  0.62023315  1
  N  N52  1  0.97933076  0.20820816  0.62089414  1
  N  N53  1  0.60316338  0.95552143  0.61964478  1
  N  N54  1  0.91535677  0.83273439  0.62057309  1
  N  N55  1  0.82959742  0.66562908  0.12031256  1
  N  N56  1  0.95739786  0.41700375  0.12085397  1
  N  N57  1  0.63198684  0.54499609  0.11655924  1
  N  N58  1  0.76769796  0.29450665  0.12010126  1
  N  N59  1  0.89481720  0.04298683  0.12062258  1
  N  N60  1  0.58268128  0.16000269  0.11999920  1
  N  N61  1  0.70791571  0.91628531  0.12071736  1
  N  N62  1  0.52363426  0.76462480  0.11683669  1
  B  B63  1  0.54165375  0.58248630  0.00321520  1
