# generated using pymatgen
data_Ti11SiN12
_symmetry_space_group_name_H-M   'P 1'
_cell_length_a   4.23124573
_cell_length_b   6.08054545
_cell_length_c   10.39665923
_cell_angle_alpha   90.00000358
_cell_angle_beta   90.00000000
_cell_angle_gamma   90.03141355
_symmetry_Int_Tables_number   1
_chemical_formula_structural   Ti11SiN12
_chemical_formula_sum   'Ti11 Si1 N12'
_cell_volume   267.48814020
_cell_formula_units_Z   1
loop_
 _symmetry_equiv_pos_site_id
 _symmetry_equiv_pos_as_xyz
  1  'x, y, z'
loop_
 _atom_site_type_symbol
 _atom_site_label
 _atom_site_symmetry_multiplicity
 _atom_site_fract_x
 _atom_site_fract_y
 _atom_site_fract_z
 _atom_site_occupancy
  Ti  Ti0  1  0.06148579  0.16306655  0.83416025  1
  Ti  Ti1  1  0.56339240  0.83732882  0.16666667  1
  Ti  Ti2  1  0.56330307  0.33040088  0.99649587  1
  Ti  Ti3  1  0.06323882  0.16374484  0.16666667  1
  Ti  Ti4  1  0.06354520  0.66593987  0.33432435  1
  Ti  Ti5  1  0.06148579  0.16306655  0.49917308  1
  Ti  Ti6  1  0.06252257  0.66998817  0.66666667  1
  Ti  Ti7  1  0.06354520  0.66593987  0.99900898  1
  Ti  Ti8  1  0.56330307  0.33040088  0.33683746  1
  Ti  Ti9  1  0.56322438  0.83585427  0.50174096  1
  Ti  Ti10  1  0.56322438  0.83585427  0.83159237  1
  N  N11  1  0.56324648  0.17090818  0.16666667  1
  N  N12  1  0.56299968  0.66045816  0.33661340  1
  N  N13  1  0.56812029  0.18875842  0.52239178  1
  N  N14  1  0.56802667  0.62679709  0.66666667  1
  N  N15  1  0.56812029  0.18875842  0.81094155  1
  N  N16  1  0.56299968  0.66045816  0.99671993  1
  N  N17  1  0.06336402  0.83050117  0.16666667  1
  N  N18  1  0.06284187  0.33198218  0.33473524  1
  N  N19  1  0.06199035  0.83704214  0.50177358  1
  N  N20  1  0.08636588  0.33722293  0.66666667  1
  N  N21  1  0.06199035  0.83704214  0.83155975  1
  N  N22  1  0.06284187  0.33198218  0.99859809  1
  Si  Si23  1  0.51482185  0.33650389  0.66666667  1
