# generated using pymatgen
data_Ti11CrN12
_symmetry_space_group_name_H-M   'P 1'
_cell_length_a   4.20744458
_cell_length_b   6.05092289
_cell_length_c   10.51001332
_cell_angle_alpha   90.00000354
_cell_angle_beta   90.00000000
_cell_angle_gamma   89.99884394
_symmetry_Int_Tables_number   1
_chemical_formula_structural   Ti11CrN12
_chemical_formula_sum   'Ti11 Cr1 N12'
_cell_volume   267.57361687
_cell_formula_units_Z   1
loop_
 _symmetry_equiv_pos_site_id
 _symmetry_equiv_pos_as_xyz
  1  'x, y, z'
loop_
 _atom_site_type_symbol
 _atom_site_label
 _atom_site_symmetry_multiplicity
 _atom_site_fract_x
 _atom_site_fract_y
 _atom_site_fract_z
 _atom_site_occupancy
  Ti  Ti0  1  0.06251635  0.16369434  0.83041139  1
  Ti  Ti1  1  0.56260407  0.84333723  0.16662868  1
  Ti  Ti2  1  0.56252706  0.33718505  0.99561476  1
  Ti  Ti3  1  0.06265759  0.17730563  0.16670334  1
  Ti  Ti4  1  0.06260801  0.67323759  0.33287370  1
  Ti  Ti5  1  0.06250308  0.16371881  0.50297871  1
  Ti  Ti6  1  0.06249182  0.64933584  0.66668363  1
  Ti  Ti7  1  0.06259312  0.67322398  0.00051755  1
  Ti  Ti8  1  0.56253840  0.33718136  0.33765978  1
  Ti  Ti9  1  0.56245093  0.82823011  0.50372368  1
  Ti  Ti10  1  0.56247681  0.82823045  0.82955997  1
  N  N11  1  0.56271507  0.18061396  0.16666199  1
  N  N12  1  0.56267370  0.67320390  0.33142237  1
  N  N13  1  0.56247252  0.16170133  0.50036380  1
  N  N14  1  0.56244763  0.65348954  0.66666588  1
  N  N15  1  0.56248740  0.16173385  0.83291947  1
  N  N16  1  0.56266063  0.67316471  0.00187712  1
  N  N17  1  0.06259825  0.84492135  0.16667712  1
  N  N18  1  0.06256972  0.34039418  0.33719958  1
  N  N19  1  0.06242136  0.82553940  0.50354174  1
  N  N20  1  0.06204506  0.32104367  0.66667878  1
  N  N21  1  0.06243805  0.82555906  0.82982569  1
  N  N22  1  0.06256084  0.34034457  0.99617159  1
  Cr  Cr23  1  0.56194259  0.32361011  0.66663967  1
