# generated using pymatgen
data_Ti11CoN12
_symmetry_space_group_name_H-M   'P 1'
_cell_length_a   4.19085198
_cell_length_b   6.10025140
_cell_length_c   10.47146276
_cell_angle_alpha   90.00000356
_cell_angle_beta   90.00000000
_cell_angle_gamma   89.99813355
_symmetry_Int_Tables_number   1
_chemical_formula_structural   Ti11CoN12
_chemical_formula_sum   'Ti11 Co1 N12'
_cell_volume   267.70557022
_cell_formula_units_Z   1
loop_
 _symmetry_equiv_pos_site_id
 _symmetry_equiv_pos_as_xyz
  1  'x, y, z'
loop_
 _atom_site_type_symbol
 _atom_site_label
 _atom_site_symmetry_multiplicity
 _atom_site_fract_x
 _atom_site_fract_y
 _atom_site_fract_z
 _atom_site_occupancy
  Ti  Ti0  1  0.06251885  0.16616370  0.82929967  1
  Ti  Ti1  1  0.56243227  0.84057076  0.16666667  1
  Ti  Ti2  1  0.56249984  0.33777640  -0.00239154  1
  Ti  Ti3  1  0.06257307  0.17439898  0.16666667  1
  Ti  Ti4  1  0.06244506  0.67079210  0.33297626  1
  Ti  Ti5  1  0.06251885  0.16616370  0.50403366  1
  Ti  Ti6  1  0.06258184  0.64865739  0.66666667  1
  Ti  Ti7  1  0.06244506  0.67079210  0.00035707  1
  Ti  Ti8  1  0.56249984  0.33777640  0.33572487  1
  Ti  Ti9  1  0.56249085  0.83232786  0.50342948  1
  Ti  Ti10  1  0.56249085  0.83232786  0.82990385  1
  N  N11  1  0.56247782  0.17327787  0.16666667  1
  N  N12  1  0.56249544  0.67183055  0.33374319  1
  N  N13  1  0.56260032  0.15872183  0.49408989  1
  N  N14  1  0.56257148  0.66459341  0.66666667  1
  N  N15  1  0.56260032  0.15872183  0.83924344  1
  N  N16  1  0.56249544  0.67183055  0.99959014  1
  N  N17  1  0.06226769  0.84364984  0.16666667  1
  N  N18  1  0.06247918  0.33903247  0.33635131  1
  N  N19  1  0.06251969  0.82999887  0.50381761  1
  N  N20  1  0.06258631  0.32556366  0.66666667  1
  N  N21  1  0.06251969  0.82999887  0.82951572  1
  N  N22  1  0.06247918  0.33903247  0.99698202  1
  Co  Co23  1  0.56241107  0.31600053  0.66666667  1
