# generated using pymatgen
data_Ti11NiN12
_symmetry_space_group_name_H-M   'P 1'
_cell_length_a   4.18048943
_cell_length_b   6.13870678
_cell_length_c   10.53170541
_cell_angle_alpha   90.00000370
_cell_angle_beta   90.00000000
_cell_angle_gamma   90.02016546
_symmetry_Int_Tables_number   1
_chemical_formula_structural   Ti11NiN12
_chemical_formula_sum   'Ti11 Ni1 N12'
_cell_volume   270.27302031
_cell_formula_units_Z   1
loop_
 _symmetry_equiv_pos_site_id
 _symmetry_equiv_pos_as_xyz
  1  'x, y, z'
loop_
 _atom_site_type_symbol
 _atom_site_label
 _atom_site_symmetry_multiplicity
 _atom_site_fract_x
 _atom_site_fract_y
 _atom_site_fract_z
 _atom_site_occupancy
  Ti  Ti0  1  0.06257117  0.17572270  0.82813160  1
  Ti  Ti1  1  0.56249592  0.83853321  0.16666667  1
  Ti  Ti2  1  0.56250817  0.33948224  0.00178319  1
  Ti  Ti3  1  0.06249482  0.17202880  0.16666667  1
  Ti  Ti4  1  0.06248643  0.67175565  0.33300586  1
  Ti  Ti5  1  0.06257117  0.17572270  0.50520173  1
  Ti  Ti6  1  0.06243627  0.66400235  0.66666667  1
  Ti  Ti7  1  0.06248643  0.67175565  0.00032747  1
  Ti  Ti8  1  0.56250817  0.33948224  0.33155014  1
  Ti  Ti9  1  0.56247424  0.83898374  0.50216461  1
  Ti  Ti10  1  0.56247424  0.83898374  0.83116872  1
  N  N11  1  0.56248069  0.16925508  0.16666667  1
  N  N12  1  0.56244381  0.67021483  0.33400797  1
  N  N13  1  0.56252208  0.16347451  0.48802197  1
  N  N14  1  0.56248195  0.68880173  0.66666667  1
  N  N15  1  0.56252208  0.16347451  0.84531136  1
  N  N16  1  0.56244381  0.67021483  0.99932536  1
  N  N17  1  0.06247297  0.84144589  0.16666667  1
  N  N18  1  0.06252580  0.33985757  0.33414655  1
  N  N19  1  0.06246577  0.83632998  0.50138179  1
  N  N20  1  0.06255590  0.33847789  0.66666667  1
  N  N21  1  0.06246577  0.83632998  0.83195154  1
  N  N22  1  0.06252580  0.33985757  -0.00081322  1
  Ni  Ni23  1  0.56258661  0.21581265  0.66666667  1
