# generated using pymatgen
data_Ti11WN12
_symmetry_space_group_name_H-M   'P 1'
_cell_length_a   4.23755715
_cell_length_b   6.07027713
_cell_length_c   10.56414185
_cell_angle_alpha   90.00000363
_cell_angle_beta   90.00000000
_cell_angle_gamma   89.99418356
_symmetry_Int_Tables_number   1
_chemical_formula_structural   Ti11WN12
_chemical_formula_sum   'Ti11 W1 N12'
_cell_volume   271.74296452
_cell_formula_units_Z   1
loop_
 _symmetry_equiv_pos_site_id
 _symmetry_equiv_pos_as_xyz
  1  'x, y, z'
loop_
 _atom_site_type_symbol
 _atom_site_label
 _atom_site_symmetry_multiplicity
 _atom_site_fract_x
 _atom_site_fract_y
 _atom_site_fract_z
 _atom_site_occupancy
  Ti  Ti0  1  0.06255642  0.16149696  0.83481561  1
  Ti  Ti1  1  0.56248148  0.84401630  0.16666667  1
  Ti  Ti2  1  0.56251170  0.34014912  0.99795381  1
  Ti  Ti3  1  0.06255031  0.17644511  0.16666667  1
  Ti  Ti4  1  0.06246536  0.67291228  0.33206771  1
  Ti  Ti5  1  0.06255642  0.16149696  0.49851772  1
  Ti  Ti6  1  0.06250828  0.65586622  0.66666667  1
  Ti  Ti7  1  0.06246536  0.67291228  0.00126562  1
  Ti  Ti8  1  0.56251170  0.34014912  0.33537952  1
  Ti  Ti9  1  0.56251396  0.82549056  0.50227262  1
  Ti  Ti10  1  0.56251396  0.82549056  0.83106071  1
  N  N11  1  0.56251682  0.17979255  0.16666667  1
  N  N12  1  0.56249639  0.67458824  0.32911717  1
  N  N13  1  0.56255109  0.15781973  0.49325674  1
  N  N14  1  0.56242993  0.66080250  0.66666667  1
  N  N15  1  0.56255109  0.15781973  0.84007659  1
  N  N16  1  0.56249639  0.67458824  0.00421616  1
  N  N17  1  0.06237284  0.84526215  0.16666667  1
  N  N18  1  0.06245001  0.34104703  0.33405076  1
  N  N19  1  0.06242222  0.82523644  0.50120092  1
  N  N20  1  0.06250084  0.31950662  0.66666667  1
  N  N21  1  0.06242222  0.82523644  0.83213241  1
  N  N22  1  0.06245001  0.34104703  0.99928257  1
  W  W23  1  0.56270517  0.32082785  0.66666667  1
