# generated using pymatgen
data_Ti11MoN12
_symmetry_space_group_name_H-M   'P 1'
_cell_length_a   5.29927538
_cell_length_b   5.65488174
_cell_length_c   9.79082464
_cell_angle_alpha   90.00000322
_cell_angle_beta   90.00000000
_cell_angle_gamma   89.99933311
_symmetry_Int_Tables_number   1
_chemical_formula_structural   Ti11MoN12
_chemical_formula_sum   'Ti11 Mo1 N12'
_cell_volume   293.39944475
_cell_formula_units_Z   1
loop_
 _symmetry_equiv_pos_site_id
 _symmetry_equiv_pos_as_xyz
  1  'x, y, z'
loop_
 _atom_site_type_symbol
 _atom_site_label
 _atom_site_symmetry_multiplicity
 _atom_site_fract_x
 _atom_site_fract_y
 _atom_site_fract_z
 _atom_site_occupancy
  Ti  Ti0  1  0.02452157  0.16349312  0.83706388  1
  Ti  Ti1  1  0.50144348  0.84529722  0.16666667  1
  Ti  Ti2  1  0.50616530  0.34438809  0.99705224  1
  Ti  Ti3  1  0.00230495  0.17375662  0.16666667  1
  Ti  Ti4  1  -0.00614744  0.67541876  0.33169130  1
  Ti  Ti5  1  0.02452157  0.16349312  0.49626945  1
  Ti  Ti6  1  -0.02057691  0.64949438  0.66666667  1
  Ti  Ti7  1  -0.00614744  0.67541876  0.00164203  1
  Ti  Ti8  1  0.50616530  0.34438809  0.33628109  1
  Ti  Ti9  1  0.49178023  0.84234519  0.51388508  1
  Ti  Ti10  1  0.49178023  0.84234519  0.81944825  1
  N  N11  1  0.62179037  0.17758397  0.16666667  1
  N  N12  1  0.61845996  0.68037487  0.33469094  1
  N  N13  1  0.65079298  0.16675046  0.48556342  1
  N  N14  1  0.61294642  0.64360967  0.66666667  1
  N  N15  1  0.65079298  0.16675046  0.84776991  1
  N  N16  1  0.61845996  0.68037487  -0.00135761  1
  N  N17  1  0.12724769  0.83910906  0.16666667  1
  N  N18  1  0.12429767  0.34586459  0.33089071  1
  N  N19  1  0.11285113  0.81661178  0.50392949  1
  N  N20  1  0.12143214  0.33389686  0.66666667  1
  N  N21  1  0.11285113  0.81661178  0.82940384  1
  N  N22  1  0.12429767  0.34586459  0.00244262  1
  Mo  Mo23  1  0.48796907  0.26675851  0.66666667  1
