# generated using pymatgen
data_Ti11NbN12
_symmetry_space_group_name_H-M   'P 1'
_cell_length_a   4.25206306
_cell_length_b   6.11144344
_cell_length_c   10.51915233
_cell_angle_alpha   90.00000365
_cell_angle_beta   90.00000000
_cell_angle_gamma   89.99881460
_symmetry_Int_Tables_number   1
_chemical_formula_structural   Ti11NbN12
_chemical_formula_sum   'Ti11 Nb1 N12'
_cell_volume   273.35324749
_cell_formula_units_Z   1
loop_
 _symmetry_equiv_pos_site_id
 _symmetry_equiv_pos_as_xyz
  1  'x, y, z'
loop_
 _atom_site_type_symbol
 _atom_site_label
 _atom_site_symmetry_multiplicity
 _atom_site_fract_x
 _atom_site_fract_y
 _atom_site_fract_z
 _atom_site_occupancy
  Ti  Ti0  1  0.06234004  0.16231391  0.83577790  1
  Ti  Ti1  1  0.56258368  0.84126014  0.16666667  1
  Ti  Ti2  1  0.56247112  0.33860840  0.99918972  1
  Ti  Ti3  1  0.06254881  0.17217909  0.16666667  1
  Ti  Ti4  1  0.06258135  0.66868457  0.33190601  1
  Ti  Ti5  1  0.06234004  0.16231391  0.49755543  1
  Ti  Ti6  1  0.06240336  0.66257104  0.66666667  1
  Ti  Ti7  1  0.06258135  0.66868457  0.00142732  1
  Ti  Ti8  1  0.56247112  0.33860840  0.33414361  1
  Ti  Ti9  1  0.56247884  0.82796797  0.49972558  1
  Ti  Ti10  1  0.56247884  0.82796797  0.83360775  1
  N  N11  1  0.56270694  0.17415456  0.16666667  1
  N  N12  1  0.56270908  0.67073147  0.32860454  1
  N  N13  1  0.56244218  0.15658270  0.49244394  1
  N  N14  1  0.56247031  0.66981315  0.66666667  1
  N  N15  1  0.56244218  0.15658270  0.84088939  1
  N  N16  1  0.56270908  0.67073147  0.00472879  1
  N  N17  1  0.06261375  0.84264954  0.16666667  1
  N  N18  1  0.06253416  0.33818206  0.33301240  1
  N  N19  1  0.06247386  0.82885177  0.49950148  1
  N  N20  1  0.06229446  0.32547641  0.66666667  1
  N  N21  1  0.06247386  0.82885177  0.83383185  1
  N  N22  1  0.06253416  0.33818206  0.00032093  1
  Nb  Nb23  1  0.56231746  0.32805039  0.66666667  1
