# generated using pymatgen
data_ZrAl31N32
_symmetry_space_group_name_H-M   'P 1'
_cell_length_a   16.66423658
_cell_length_b   8.32454494
_cell_length_c   5.01224258
_cell_angle_alpha   89.99297201
_cell_angle_beta   89.99886489
_cell_angle_gamma   98.17913520
_symmetry_Int_Tables_number   1
_chemical_formula_structural   ZrAl31N32
_chemical_formula_sum   'Zr1 Al31 N32'
_cell_volume   688.23663056
_cell_formula_units_Z   1
loop_
 _symmetry_equiv_pos_site_id
 _symmetry_equiv_pos_as_xyz
  1  'x, y, z'
loop_
 _atom_site_type_symbol
 _atom_site_label
 _atom_site_symmetry_multiplicity
 _atom_site_fract_x
 _atom_site_fract_y
 _atom_site_fract_z
 _atom_site_occupancy
  Al  Al0  1  0.16391811  0.33272180  0.00316348  1
  Al  Al1  1  0.28922676  0.08375324  0.00338710  1
  Al  Al2  1  0.47672906  0.19968075  0.00254441  1
  Al  Al3  1  0.10417905  0.95843929  0.00353654  1
  Al  Al4  1  0.41294983  0.83635161  0.00180521  1
  Al  Al5  1  0.45456557  0.40989684  0.50604083  1
  Al  Al6  1  0.39388285  0.04066361  0.50208637  1
  Al  Al7  1  0.02157440  0.79183522  0.50337634  1
  Al  Al8  1  0.22828593  0.70782255  0.00338923  1
  Al  Al9  1  0.34829505  0.45333928  0.00222516  1
  Al  Al10  1  0.04179076  0.58356592  0.00357360  1
  Al  Al11  1  0.33253739  0.66534821  0.50322269  1
  Al  Al12  1  0.14532287  0.54167400  0.50344982  1
  Al  Al13  1  0.26839006  0.29039392  0.50265692  1
  Al  Al14  1  0.08257116  0.16619084  0.50342830  1
  Al  Al15  1  0.20776293  0.91617061  0.50332327  1
  Al  Al16  1  0.67153553  0.33152528  0.00188798  1
  Al  Al17  1  0.79340989  0.08163851  0.00276740  1
  Al  Al18  1  0.97890264  0.20807315  0.00349669  1
  Al  Al19  1  0.60556861  0.96823774  0.00185095  1
  Al  Al20  1  0.91922531  0.83421059  0.00307189  1
  Al  Al21  1  0.95881387  0.41672123  0.50353614  1
  Al  Al22  1  0.89649862  0.04103524  0.50329274  1
  Al  Al23  1  0.51990213  0.80000051  0.50626143  1
  Al  Al24  1  0.73521891  0.71244306  0.00206178  1
  Al  Al25  1  0.85559110  0.45849801  0.00369339  1
  Al  Al26  1  0.83542684  0.66747001  0.50283375  1
  Al  Al27  1  0.65075182  0.54105420  0.50610496  1
  Al  Al28  1  0.77262031  0.29054938  0.50277251  1
  Al  Al29  1  0.58374528  0.17002268  0.50271652  1
  Al  Al30  1  0.70883871  0.91724931  0.50330975  1
  N  N31  1  0.22854980  0.70796054  0.62098671  1
  N  N32  1  0.35152915  0.45659170  0.62230232  1
  N  N33  1  0.04160909  0.58356771  0.62144121  1
  N  N34  1  0.16494814  0.33328050  0.62153010  1
  N  N35  1  0.29028280  0.08348300  0.62130294  1
  N  N36  1  0.47857176  0.20422887  0.62196354  1
  N  N37  1  0.10413258  0.95872604  0.62144334  1
  N  N38  1  0.41466425  0.83283486  0.62211755  1
  N  N39  1  0.33240690  0.66458926  0.12087404  1
  N  N40  1  0.44640533  0.39565200  0.12646006  1
  N  N41  1  0.14530596  0.54162546  0.12133839  1
  N  N42  1  0.26603329  0.28914671  0.12184705  1
  N  N43  1  0.39168183  0.03998583  0.12192685  1
  N  N44  1  0.08211595  0.16543017  0.12152306  1
  N  N45  1  0.20751186  0.91550111  0.12130650  1
  N  N46  1  0.02217026  0.79169328  0.12171697  1
  N  N47  1  0.73178727  0.71107935  0.62230301  1
  N  N48  1  0.85488866  0.45855502  0.62113896  1
  N  N49  1  0.54186855  0.58274037  0.57322396  1
  N  N50  1  0.66870072  0.33199881  0.62227721  1
  N  N51  1  0.79267388  0.08232406  0.62104862  1
  N  N52  1  0.97890511  0.20835015  0.62142528  1
  N  N53  1  0.60538502  0.96186471  0.62170950  1
  N  N54  1  0.91810822  0.83399089  0.62154200  1
  N  N55  1  0.83766531  0.66845210  0.12159465  1
  N  N56  1  0.95922198  0.41652961  0.12139717  1
  N  N57  1  0.66098397  0.53940773  0.12708303  1
  N  N58  1  0.77423662  0.28846834  0.12139132  1
  N  N59  1  0.89682295  0.04038150  0.12132746  1
  N  N60  1  0.58417455  0.17536973  0.12083774  1
  N  N61  1  0.70865170  0.91734613  0.12050027  1
  N  N62  1  0.51799899  0.82022215  0.12646859  1
  Zr  Zr63  1  0.54197617  0.58204570  0.04378349  1
