# generated using pymatgen
data_Al31ReN32
_symmetry_space_group_name_H-M   'P 1'
_cell_length_a   8.16804504
_cell_length_b   8.16804504
_cell_length_c   8.16804504
_cell_angle_alpha   90.00000000
_cell_angle_beta   90.00000000
_cell_angle_gamma   90.00000000
_symmetry_Int_Tables_number   1
_chemical_formula_structural   Al31ReN32
_chemical_formula_sum   'Al31 Re1 N32'
_cell_volume   544.94713238
_cell_formula_units_Z   1
loop_
 _symmetry_equiv_pos_site_id
 _symmetry_equiv_pos_as_xyz
  1  'x, y, z'
loop_
 _atom_site_type_symbol
 _atom_site_label
 _atom_site_symmetry_multiplicity
 _atom_site_fract_x
 _atom_site_fract_y
 _atom_site_fract_z
 _atom_site_occupancy
  Al  Al0  1  0.00000000  0.00000000  0.00000000  1
  Al  Al1  1  0.00000000  0.24955367  0.25031591  1
  Al  Al2  1  0.24955300  0.00000000  0.25032341  1
  Al  Al3  1  0.24974574  0.24975327  0.00000000  1
  Al  Al4  1  0.00000000  0.00000000  0.50000000  1
  Al  Al5  1  0.00000000  0.24955367  0.74968409  1
  Al  Al6  1  0.24955300  0.00000000  0.74967659  1
  Al  Al7  1  0.24913455  0.24913515  0.50000000  1
  Al  Al8  1  0.00000000  0.50000000  0.00000000  1
  Al  Al9  1  0.00000000  0.75044633  0.25031591  1
  Al  Al10  1  0.24733320  0.50000000  0.24857149  1
  Al  Al11  1  0.24974574  0.75024673  0.00000000  1
  Al  Al12  1  0.00000000  0.50000000  0.50000000  1
  Al  Al13  1  0.00000000  0.75044633  0.74968409  1
  Al  Al14  1  0.24733320  0.50000000  0.75142851  1
  Al  Al15  1  0.24913455  0.75086485  0.50000000  1
  Al  Al16  1  0.50000000  0.00000000  0.00000000  1
  Al  Al17  1  0.50000000  0.24732435  0.24856052  1
  Al  Al18  1  0.75044700  0.00000000  0.25032341  1
  Al  Al19  1  0.75025426  0.24975327  0.00000000  1
  Al  Al20  1  0.50000000  0.00000000  0.50000000  1
  Al  Al21  1  0.50000000  0.24732435  0.75143948  1
  Al  Al22  1  0.75044700  0.00000000  0.74967659  1
  Al  Al23  1  0.75086545  0.24913515  0.50000000  1
  Al  Al24  1  0.50000000  0.50000000  0.00000000  1
  Al  Al25  1  0.50000000  0.75267565  0.24856052  1
  Al  Al26  1  0.75266680  0.50000000  0.24857149  1
  Al  Al27  1  0.75025426  0.75024673  0.00000000  1
  Al  Al28  1  0.50000000  0.75267565  0.75143948  1
  Al  Al29  1  0.75266680  0.50000000  0.75142851  1
  Al  Al30  1  0.75086545  0.75086485  0.50000000  1
  N  N31  1  0.25050973  0.25050965  0.24997128  1
  N  N32  1  0.24980489  0.00000000  0.00000000  1
  N  N33  1  0.00000000  0.24979653  0.00000000  1
  N  N34  1  0.00000000  0.00000000  0.24912847  1
  N  N35  1  0.25050973  0.25050965  0.75002872  1
  N  N36  1  0.24809942  0.00000000  0.50000000  1
  N  N37  1  0.00000000  0.24808565  0.50000000  1
  N  N38  1  0.00000000  0.00000000  0.75087153  1
  N  N39  1  0.25050973  0.74949035  0.24997128  1
  N  N40  1  0.24939353  0.50000000  0.00000000  1
  N  N41  1  0.00000000  0.75020347  0.00000000  1
  N  N42  1  0.00000000  0.50000000  0.24825301  1
  N  N43  1  0.25050973  0.74949035  0.75002872  1
  N  N44  1  0.23789618  0.50000000  0.50000000  1
  N  N45  1  0.00000000  0.75191435  0.50000000  1
  N  N46  1  0.00000000  0.50000000  0.75174699  1
  N  N47  1  0.74949027  0.25050965  0.24997128  1
  N  N48  1  0.75019511  0.00000000  0.00000000  1
  N  N49  1  0.50000000  0.24939807  0.00000000  1
  N  N50  1  0.50000000  0.00000000  0.24827303  1
  N  N51  1  0.74949027  0.25050965  0.75002872  1
  N  N52  1  0.75190058  0.00000000  0.50000000  1
  N  N53  1  0.50000000  0.23790929  0.50000000  1
  N  N54  1  0.50000000  0.00000000  0.75172697  1
  N  N55  1  0.74949027  0.74949035  0.24997128  1
  N  N56  1  0.75060647  0.50000000  0.00000000  1
  N  N57  1  0.50000000  0.75060193  0.00000000  1
  N  N58  1  0.50000000  0.50000000  0.24212750  1
  N  N59  1  0.74949027  0.74949035  0.75002872  1
  N  N60  1  0.76210382  0.50000000  0.50000000  1
  N  N61  1  0.50000000  0.76209071  0.50000000  1
  N  N62  1  0.50000000  0.50000000  0.75787250  1
  Re  Re63  1  0.50000000  0.50000000  0.50000000  1
