# generated using pymatgen
data_Al31ReN32
_symmetry_space_group_name_H-M   'P 1'
_cell_length_a   16.58718397
_cell_length_b   8.29207103
_cell_length_c   5.03167534
_cell_angle_alpha   90.00072116
_cell_angle_beta   89.99835697
_cell_angle_gamma   98.20561632
_symmetry_Int_Tables_number   1
_chemical_formula_structural   Al31ReN32
_chemical_formula_sum   'Al31 Re1 N32'
_cell_volume   684.98201674
_cell_formula_units_Z   1
loop_
 _symmetry_equiv_pos_site_id
 _symmetry_equiv_pos_as_xyz
  1  'x, y, z'
loop_
 _atom_site_type_symbol
 _atom_site_label
 _atom_site_symmetry_multiplicity
 _atom_site_fract_x
 _atom_site_fract_y
 _atom_site_fract_z
 _atom_site_occupancy
  Al  Al0  1  0.16517611  0.33275265  0.00046018  1
  Al  Al1  1  0.29051362  0.08357485  0.00106629  1
  Al  Al2  1  0.47822384  0.20205235  0.99905964  1
  Al  Al3  1  0.10421068  0.95828833  0.00047393  1
  Al  Al4  1  0.41385659  0.83466845  0.99866096  1
  Al  Al5  1  0.45686635  0.41416002  0.51284962  1
  Al  Al6  1  0.39492319  0.04122771  0.50100178  1
  Al  Al7  1  0.02124952  0.79169659  0.50040699  1
  Al  Al8  1  0.22851159  0.70803525  0.00083509  1
  Al  Al9  1  0.35025249  0.45608787  0.99866796  1
  Al  Al10  1  0.04169988  0.58330388  0.00043215  1
  Al  Al11  1  0.33292733  0.66589335  0.50146829  1
  Al  Al12  1  0.14555551  0.54148190  0.50070307  1
  Al  Al13  1  0.26965293  0.29096240  0.50078036  1
  Al  Al14  1  0.08295457  0.16629460  0.50044269  1
  Al  Al15  1  0.20806889  0.91633606  0.50087747  1
  Al  Al16  1  0.66921055  0.33077163  0.99866097  1
  Al  Al17  1  0.79277560  0.08294703  0.00089976  1
  Al  Al18  1  0.97907024  0.20825286  0.00046121  1
  Al  Al19  1  0.60564535  0.96408627  0.99889217  1
  Al  Al20  1  0.91807326  0.83389582  0.00043085  1
  Al  Al21  1  0.95854236  0.41670450  0.50054867  1
  Al  Al22  1  0.89621965  0.04148528  0.50085346  1
  Al  Al23  1  0.52043001  0.79524092  0.51246779  1
  Al  Al24  1  0.73290567  0.71213795  0.99853108  1
  Al  Al25  1  0.85483693  0.45861853  0.00082990  1
  Al  Al26  1  0.83435652  0.66727214  0.50070800  1
  Al  Al27  1  0.64773814  0.54198835  0.51263790  1
  Al  Al28  1  0.77170088  0.29145355  0.50112267  1
  Al  Al29  1  0.58356547  0.16850454  0.50177093  1
  Al  Al30  1  0.70859992  0.91717867  0.50178769  1
  N  N31  1  0.22870998  0.70805938  0.61984921  1
  N  N32  1  0.35230531  0.45764269  0.62201281  1
  N  N33  1  0.04161620  0.58340751  0.61949853  1
  N  N34  1  0.16574061  0.33313586  0.61983400  1
  N  N35  1  0.29094007  0.08340306  0.62026964  1
  N  N36  1  0.47902328  0.20536331  0.62220862  1
  N  N37  1  0.10415888  0.95847218  0.61960770  1
  N  N38  1  0.41503701  0.83323356  0.62209426  1
  N  N39  1  0.33266474  0.66544575  0.12072835  1
  N  N40  1  0.44963519  0.40049105  0.13083456  1
  N  N41  1  0.14550230  0.54139274  0.11967943  1
  N  N42  1  0.26829271  0.29014696  0.12070836  1
  N  N43  1  0.39379339  0.04056779  0.12148479  1
  N  N44  1  0.08268542  0.16581173  0.11961860  1
  N  N45  1  0.20795010  0.91605545  0.11993787  1
  N  N46  1  0.02155366  0.79153930  0.11966139  1
  N  N47  1  0.73091184  0.71081647  0.62191427  1
  N  N48  1  0.85457942  0.45873195  0.61984678  1
  N  N49  1  0.54166603  0.58381181  0.60197031  1
  N  N50  1  0.66776795  0.33209696  0.62216207  1
  N  N51  1  0.79233557  0.08321226  0.62025778  1
  N  N52  1  0.97909528  0.20846965  0.61960856  1
  N  N53  1  0.60524188  0.96100334  0.62207719  1
  N  N54  1  0.91750693  0.83382970  0.61983306  1
  N  N55  1  0.83556671  0.66773905  0.12041510  1
  N  N56  1  0.95872589  0.41654618  0.11956750  1
  N  N57  1  0.65661548  0.53929769  0.13075033  1
  N  N58  1  0.77258673  0.29025850  0.12072420  1
  N  N59  1  0.89641610  0.04107528  0.11990714  1
  N  N60  1  0.58381804  0.17066586  0.12149600  1
  N  N61  1  0.70867879  0.91737189  0.12079866  1
  N  N62  1  0.51876762  0.81161172  0.13053767  1
  Re  Re63  1  0.54179724  0.58193910  0.08131570  1
