# generated using pymatgen
data_NbAl31N32
_symmetry_space_group_name_H-M   'P 1'
_cell_length_a   16.63981069
_cell_length_b   8.31534966
_cell_length_c   5.01711701
_cell_angle_alpha   89.99922407
_cell_angle_beta   89.99829076
_cell_angle_gamma   98.19517293
_symmetry_Int_Tables_number   1
_chemical_formula_structural   NbAl31N32
_chemical_formula_sum   'Nb1 Al31 N32'
_cell_volume   687.10865369
_cell_formula_units_Z   1
loop_
 _symmetry_equiv_pos_site_id
 _symmetry_equiv_pos_as_xyz
  1  'x, y, z'
loop_
 _atom_site_type_symbol
 _atom_site_label
 _atom_site_symmetry_multiplicity
 _atom_site_fract_x
 _atom_site_fract_y
 _atom_site_fract_z
 _atom_site_occupancy
  Al  Al0  1  0.16449236  0.33285999  0.00309251  1
  Al  Al1  1  0.28978514  0.08382778  0.00308734  1
  Al  Al2  1  0.47731128  0.20111257  0.00136120  1
  Al  Al3  1  0.10417549  0.95841946  0.00348040  1
  Al  Al4  1  0.41337170  0.83567951  0.00092857  1
  Al  Al5  1  0.45533245  0.41155810  0.50820388  1
  Al  Al6  1  0.39424635  0.04099210  0.50182303  1
  Al  Al7  1  0.02144774  0.79176492  0.50329308  1
  Al  Al8  1  0.22837672  0.70796249  0.00327649  1
  Al  Al9  1  0.34943915  0.45446801  0.00134981  1
  Al  Al10  1  0.04175005  0.58349426  0.00346765  1
  Al  Al11  1  0.33260522  0.66561639  0.50295993  1
  Al  Al12  1  0.14537736  0.54165254  0.50336843  1
  Al  Al13  1  0.26882201  0.29068851  0.50249557  1
  Al  Al14  1  0.08272128  0.16630268  0.50335434  1
  Al  Al15  1  0.20785807  0.91630275  0.50327605  1
  Al  Al16  1  0.67054271  0.33134409  0.00097702  1
  Al  Al17  1  0.79313368  0.08203626  0.00270438  1
  Al  Al18  1  0.97898050  0.20815696  0.00344200  1
  Al  Al19  1  0.60557759  0.96626479  0.00094268  1
  Al  Al20  1  0.91870619  0.83397514  0.00303002  1
  Al  Al21  1  0.95872197  0.41670674  0.50338908  1
  Al  Al22  1  0.89641264  0.04110832  0.50328908  1
  Al  Al23  1  0.52009727  0.79828122  0.50828156  1
  Al  Al24  1  0.73400483  0.71168665  0.00118931  1
  Al  Al25  1  0.85526499  0.45845603  0.00335241  1
  Al  Al26  1  0.83507174  0.66731316  0.50261127  1
  Al  Al27  1  0.64971180  0.54148843  0.50815800  1
  Al  Al28  1  0.77228204  0.29076016  0.50261451  1
  Al  Al29  1  0.58369618  0.16926353  0.50234374  1
  Al  Al30  1  0.70880630  0.91711691  0.50302642  1
  N  N31  1  0.22861465  0.70807195  0.62119653  1
  N  N32  1  0.35183470  0.45703319  0.62204016  1
  N  N33  1  0.04159792  0.58352676  0.62165659  1
  N  N34  1  0.16524547  0.33330513  0.62166699  1
  N  N35  1  0.29054453  0.08354333  0.62127340  1
  N  N36  1  0.47875714  0.20475430  0.62161740  1
  N  N37  1  0.10412026  0.95869570  0.62166238  1
  N  N38  1  0.41486231  0.83315968  0.62187290  1
  N  N39  1  0.33253542  0.66500649  0.12104233  1
  N  N40  1  0.44828061  0.39830912  0.12645657  1
  N  N41  1  0.14538717  0.54160300  0.12155585  1
  N  N42  1  0.26704136  0.28975221  0.12181790  1
  N  N43  1  0.39262163  0.04025210  0.12172719  1
  N  N44  1  0.08237215  0.16567301  0.12171071  1
  N  N45  1  0.20771303  0.91583931  0.12146241  1
  N  N46  1  0.02189477  0.79166396  0.12185217  1
  N  N47  1  0.73148228  0.71079973  0.62202547  1
  N  N48  1  0.85474564  0.45851305  0.62119883  1
  N  N49  1  0.54182588  0.58316592  0.56899149  1
  N  N50  1  0.66833611  0.33200468  0.62196765  1
  N  N51  1  0.79251589  0.08253624  0.62117351  1
  N  N52  1  0.97896543  0.20836432  0.62165193  1
  N  N53  1  0.60527997  0.96149034  0.62148171  1
  N  N54  1  0.91786305  0.83384499  0.62167588  1
  N  N55  1  0.83672461  0.66804600  0.12160144  1
  N  N56  1  0.95900461  0.41652605  0.12153483  1
  N  N57  1  0.65859940  0.53903772  0.12684067  1
  N  N58  1  0.77351177  0.28904021  0.12145313  1
  N  N59  1  0.89664726  0.04062014  0.12153687  1
  N  N60  1  0.58402138  0.17316394  0.12084060  1
  N  N61  1  0.70864743  0.91714716  0.12072832  1
  N  N62  1  0.51838469  0.81566062  0.12614471  1
  Nb  Nb63  1  0.54189869  0.58318918  0.05037175  1
