# generated using pymatgen
data_Al31MoN32
_symmetry_space_group_name_H-M   'P 1'
_cell_length_a   16.61523557
_cell_length_b   8.30423322
_cell_length_c   5.02083570
_cell_angle_alpha   89.99917722
_cell_angle_beta   89.99694683
_cell_angle_gamma   98.19801352
_symmetry_Int_Tables_number   1
_chemical_formula_structural   Al31MoN32
_chemical_formula_sum   'Al31 Mo1 N32'
_cell_volume   685.67961712
_cell_formula_units_Z   1
loop_
 _symmetry_equiv_pos_site_id
 _symmetry_equiv_pos_as_xyz
  1  'x, y, z'
loop_
 _atom_site_type_symbol
 _atom_site_label
 _atom_site_symmetry_multiplicity
 _atom_site_fract_x
 _atom_site_fract_y
 _atom_site_fract_z
 _atom_site_occupancy
  Al  Al0  1  0.16493885  0.33275765  0.00185075  1
  Al  Al1  1  0.29021455  0.08359924  0.00184163  1
  Al  Al2  1  0.47788337  0.20183693  0.00024295  1
  Al  Al3  1  0.10418749  0.95829960  0.00209239  1
  Al  Al4  1  0.41370514  0.83501136  0.99981957  1
  Al  Al5  1  0.45603968  0.41262606  0.51066185  1
  Al  Al6  1  0.39464323  0.04101099  0.50126705  1
  Al  Al7  1  0.02131706  0.79172055  0.50204103  1
  Al  Al8  1  0.22847592  0.70788395  0.00203414  1
  Al  Al9  1  0.35008679  0.45535040  0.00014070  1
  Al  Al10  1  0.04170098  0.58338634  0.00215657  1
  Al  Al11  1  0.33280702  0.66566390  0.50217199  1
  Al  Al12  1  0.14548623  0.54147501  0.50213974  1
  Al  Al13  1  0.26929583  0.29072949  0.50158246  1
  Al  Al14  1  0.08286452  0.16624566  0.50204947  1
  Al  Al15  1  0.20798711  0.91623641  0.50200204  1
  Al  Al16  1  0.66970130  0.33127795  0.99996901  1
  Al  Al17  1  0.79290006  0.08262937  0.00166059  1
  Al  Al18  1  0.97904703  0.20826952  0.00208420  1
  Al  Al19  1  0.60559213  0.96498640  0.99995352  1
  Al  Al20  1  0.91830458  0.83402434  0.00184153  1
  Al  Al21  1  0.95861337  0.41671828  0.50214024  1
  Al  Al22  1  0.89630334  0.04140737  0.50204053  1
  Al  Al23  1  0.52026017  0.79673528  0.51070754  1
  Al  Al24  1  0.73321024  0.71183376  0.00012824  1
  Al  Al25  1  0.85498396  0.45864151  0.00213757  1
  Al  Al26  1  0.83465183  0.66737728  0.50180743  1
  Al  Al27  1  0.64876465  0.54170850  0.51071840  1
  Al  Al28  1  0.77195415  0.29122985  0.50176116  1
  Al  Al29  1  0.58362724  0.16883097  0.50198825  1
  Al  Al30  1  0.70868522  0.91720613  0.50233725  1
  N  N31  1  0.22871720  0.70798745  0.62034630  1
  N  N32  1  0.35211252  0.45725750  0.62189638  1
  N  N33  1  0.04162056  0.58343277  0.62060218  1
  N  N34  1  0.16557522  0.33313043  0.62067535  1
  N  N35  1  0.29081365  0.08335809  0.62046599  1
  N  N36  1  0.47890373  0.20498128  0.62173886  1
  N  N37  1  0.10417220  0.95849411  0.62055848  1
  N  N38  1  0.41498400  0.83309003  0.62181949  1
  N  N39  1  0.33262989  0.66520204  0.12077930  1
  N  N40  1  0.44940952  0.40002618  0.12799159  1
  N  N41  1  0.14545962  0.54142423  0.12055145  1
  N  N42  1  0.26784123  0.28991305  0.12106489  1
  N  N43  1  0.39332172  0.04046183  0.12131894  1
  N  N44  1  0.08258488  0.16577694  0.12064276  1
  N  N45  1  0.20788283  0.91588896  0.12044101  1
  N  N46  1  0.02164919  0.79160173  0.12076731  1
  N  N47  1  0.73112089  0.71086678  0.62197649  1
  N  N48  1  0.85462428  0.45870085  0.62043784  1
  N  N49  1  0.54172372  0.58317933  0.58347730  1
  N  N50  1  0.66799432  0.33203098  0.62197667  1
  N  N51  1  0.79238341  0.08299132  0.62044316  1
  N  N52  1  0.97904533  0.20843351  0.62057699  1
  N  N53  1  0.60523024  0.96116601  0.62162939  1
  N  N54  1  0.91762612  0.83390249  0.62070388  1
  N  N55  1  0.83600118  0.66795046  0.12098907  1
  N  N56  1  0.95879507  0.41659192  0.12054326  1
  N  N57  1  0.65712344  0.53931735  0.12842355  1
  N  N58  1  0.77294022  0.28983901  0.12086299  1
  N  N59  1  0.89648027  0.04098753  0.12056526  1
  N  N60  1  0.58391396  0.17170682  0.12106767  1
  N  N61  1  0.70866266  0.91739632  0.12062455  1
  N  N62  1  0.51864191  0.81317821  0.12788462  1
  Mo  Mo63  1  0.54178195  0.58302445  0.07078726  1
