# generated using pymatgen
data_Ti11FeN12
_symmetry_space_group_name_H-M   'P 1'
_cell_length_a   4.20382866
_cell_length_b   6.06395901
_cell_length_c   10.47030363
_cell_angle_alpha   90.00000361
_cell_angle_beta   90.00000000
_cell_angle_gamma   90.01423050
_symmetry_Int_Tables_number   1
_chemical_formula_structural   Ti11FeN12
_chemical_formula_sum   'Ti11 Fe1 N12'
_cell_volume   266.90734552
_cell_formula_units_Z   1
loop_
 _symmetry_equiv_pos_site_id
 _symmetry_equiv_pos_as_xyz
  1  'x, y, z'
loop_
 _atom_site_type_symbol
 _atom_site_label
 _atom_site_symmetry_multiplicity
 _atom_site_fract_x
 _atom_site_fract_y
 _atom_site_fract_z
 _atom_site_occupancy
  Ti  Ti0  1  0.06254345  0.16536308  0.82919318  1
  Ti  Ti1  1  0.56241819  0.84125911  0.16666667  1
  Ti  Ti2  1  0.56252034  0.33763246  0.99613199  1
  Ti  Ti3  1  0.06248339  0.17565427  0.16666667  1
  Ti  Ti4  1  0.06246637  0.67134596  0.33278475  1
  Ti  Ti5  1  0.06254345  0.16536308  0.50414015  1
  Ti  Ti6  1  0.06258206  0.64734319  0.66666667  1
  Ti  Ti7  1  0.06246637  0.67134596  0.00054858  1
  Ti  Ti8  1  0.56252034  0.33763246  0.33720134  1
  Ti  Ti9  1  0.56255602  0.83057179  0.50400967  1
  Ti  Ti10  1  0.56255602  0.83057179  0.82932366  1
  N  N11  1  0.56244379  0.17541997  0.16666667  1
  N  N12  1  0.56246248  0.67238483  0.33288799  1
  N  N13  1  0.56257572  0.15992576  0.49703630  1
  N  N14  1  0.56252525  0.66039877  0.66666667  1
  N  N15  1  0.56257572  0.15992576  0.83629703  1
  N  N16  1  0.56246248  0.67238483  0.00044534  1
  N  N17  1  0.06249396  0.84442245  0.16666667  1
  N  N18  1  0.06251232  0.33882256  0.33676545  1
  N  N19  1  0.06257122  0.82808032  0.50344723  1
  N  N20  1  0.06246000  0.32418659  0.66666667  1
  N  N21  1  0.06257122  0.82808032  0.82988610  1
  N  N22  1  0.06251232  0.33882256  0.99656788  1
  Fe  Fe23  1  0.56217753  0.32306212  0.66666667  1
