# generated using pymatgen
data_ZrTi11N12
_symmetry_space_group_name_H-M   'P 1'
_cell_length_a   4.27339439
_cell_length_b   6.16697561
_cell_length_c   10.51527180
_cell_angle_alpha   90.00000371
_cell_angle_beta   90.00000000
_cell_angle_gamma   89.99327750
_symmetry_Int_Tables_number   1
_chemical_formula_structural   ZrTi11N12
_chemical_formula_sum   'Zr1 Ti11 N12'
_cell_volume   277.11861922
_cell_formula_units_Z   1
loop_
 _symmetry_equiv_pos_site_id
 _symmetry_equiv_pos_as_xyz
  1  'x, y, z'
loop_
 _atom_site_type_symbol
 _atom_site_label
 _atom_site_symmetry_multiplicity
 _atom_site_fract_x
 _atom_site_fract_y
 _atom_site_fract_z
 _atom_site_occupancy
  Ti  Ti0  1  0.06250871  0.16445414  0.83811690  1
  Ti  Ti1  1  0.56248423  0.83197708  0.16666667  1
  Ti  Ti2  1  0.56251476  0.33467264  0.00344269  1
  Ti  Ti3  1  0.06262898  0.16204038  0.16666667  1
  Ti  Ti4  1  0.06258064  0.66212546  0.33249902  1
  Ti  Ti5  1  0.06250871  0.16445414  0.49521643  1
  Ti  Ti6  1  0.06245380  0.67621413  0.66666667  1
  Ti  Ti7  1  0.06258064  0.66212546  0.00083431  1
  Ti  Ti8  1  0.56251476  0.33467264  0.32989064  1
  Ti  Ti9  1  0.56243649  0.83434583  0.49635079  1
  Ti  Ti10  1  0.56243649  0.83434583  0.83698254  1
  N  N11  1  0.56266611  0.15948824  0.16666667  1
  N  N12  1  0.56258126  0.66427976  0.33134108  1
  N  N13  1  0.56256287  0.15882886  0.49103152  1
  N  N14  1  0.56246404  0.68701483  0.66666667  1
  N  N15  1  0.56256287  0.15882886  0.84230181  1
  N  N16  1  0.56258126  0.66427976  0.00199225  1
  N  N17  1  0.06246249  0.83240782  0.16666667  1
  N  N18  1  0.06247899  0.33306581  0.32971394  1
  N  N19  1  0.06236608  0.83637800  0.49639821  1
  N  N20  1  0.06228566  0.33650787  0.66666667  1
  N  N21  1  0.06236608  0.83637800  0.83693512  1
  N  N22  1  0.06247899  0.33306581  0.00361939  1
  Zr  Zr23  1  0.56249510  0.33804868  0.66666667  1
