# generated using pymatgen
data_Al31FeN32
_symmetry_space_group_name_H-M   'P 1'
_cell_length_a   16.57106167
_cell_length_b   8.28509930
_cell_length_c   5.02134723
_cell_angle_alpha   89.99994311
_cell_angle_beta   89.99990255
_cell_angle_gamma   98.21153236
_symmetry_Int_Tables_number   1
_chemical_formula_structural   Al31FeN32
_chemical_formula_sum   'Al31 Fe1 N32'
_cell_volume   682.32725675
_cell_formula_units_Z   1
loop_
 _symmetry_equiv_pos_site_id
 _symmetry_equiv_pos_as_xyz
  1  'x, y, z'
loop_
 _atom_site_type_symbol
 _atom_site_label
 _atom_site_symmetry_multiplicity
 _atom_site_fract_x
 _atom_site_fract_y
 _atom_site_fract_z
 _atom_site_occupancy
  Al  Al0  1  0.16611989  0.33331655  0.00305971  1
  Al  Al1  1  0.29126127  0.08369219  0.00310040  1
  Al  Al2  1  0.47905217  0.20615695  0.00287227  1
  Al  Al3  1  0.10419436  0.95844631  0.00318475  1
  Al  Al4  1  0.41564421  0.83340527  0.00271842  1
  Al  Al5  1  0.45755820  0.41509952  0.50423133  1
  Al  Al6  1  0.39550494  0.04147404  0.50272454  1
  Al  Al7  1  0.02094772  0.79171409  0.50314802  1
  Al  Al8  1  0.22887185  0.70842971  0.00327278  1
  Al  Al9  1  0.35298416  0.45791521  0.00281448  1
  Al  Al10  1  0.04161980  0.58340151  0.00319407  1
  Al  Al11  1  0.33312795  0.66649969  0.50324998  1
  Al  Al12  1  0.14572395  0.54170482  0.50319133  1
  Al  Al13  1  0.27044687  0.29152344  0.50289573  1
  Al  Al14  1  0.08322000  0.16662217  0.50315945  1
  Al  Al15  1  0.20827291  0.91673768  0.50312022  1
  Al  Al16  1  0.66740068  0.33234352  0.00269322  1
  Al  Al17  1  0.79214095  0.08312876  0.00308729  1
  Al  Al18  1  0.97912536  0.20842499  0.00317226  1
  Al  Al19  1  0.60484643  0.95982731  0.00291039  1
  Al  Al20  1  0.91717972  0.83363747  0.00303927  1
  Al  Al21  1  0.95833917  0.41669364  0.50316717  1
  Al  Al22  1  0.89596212  0.04163287  0.50311514  1
  Al  Al23  1  0.52063148  0.79338461  0.50432123  1
  Al  Al24  1  0.73028323  0.70965023  0.00280667  1
  Al  Al25  1  0.85430946  0.45843451  0.00321692  1
  Al  Al26  1  0.83367192  0.66684627  0.50297170  1
  Al  Al27  1  0.64682567  0.54145302  0.50425934  1
  Al  Al28  1  0.77111069  0.29141628  0.50293447  1
  Al  Al29  1  0.58345374  0.16696191  0.50306907  1
  Al  Al30  1  0.70850516  0.91681147  0.50330211  1
  N  N31  1  0.22904194  0.70836905  0.62184537  1
  N  N32  1  0.35371432  0.45820724  0.62219769  1
  N  N33  1  0.04160965  0.58336308  0.62178496  1
  N  N34  1  0.16640615  0.33339657  0.62177742  1
  N  N35  1  0.29150517  0.08351934  0.62170412  1
  N  N36  1  0.47918074  0.20736357  0.62211271  1
  N  N37  1  0.10416755  0.95843281  0.62179604  1
  N  N38  1  0.41626033  0.83321059  0.62219267  1
  N  N39  1  0.33295234  0.66629385  0.12206962  1
  N  N40  1  0.45506892  0.41026121  0.12456084  1
  N  N41  1  0.14567631  0.54173255  0.12179867  1
  N  N42  1  0.26987327  0.29140396  0.12181589  1
  N  N43  1  0.39504941  0.04113688  0.12176925  1
  N  N44  1  0.08310203  0.16651274  0.12180217  1
  N  N45  1  0.20821971  0.91668242  0.12178253  1
  N  N46  1  0.02109232  0.79174791  0.12183383  1
  N  N47  1  0.72959870  0.70890812  0.62224678  1
  N  N48  1  0.85417475  0.45840629  0.62171027  1
  N  N49  1  0.54167442  0.58320017  0.61002686  1
  N  N50  1  0.66695369  0.33288502  0.62218311  1
  N  N51  1  0.79183830  0.08316684  0.62185636  1
  N  N52  1  0.97912833  0.20840460  0.62179906  1
  N  N53  1  0.60447661  0.95882619  0.62230606  1
  N  N54  1  0.91688634  0.83350994  0.62177576  1
  N  N55  1  0.83416080  0.66720622  0.12176459  1
  N  N56  1  0.95840644  0.41671071  0.12176424  1
  N  N57  1  0.64995261  0.54054333  0.12467023  1
  N  N58  1  0.77145344  0.29090789  0.12177204  1
  N  N59  1  0.89608961  0.04151906  0.12182419  1
  N  N60  1  0.58364395  0.16770703  0.12203279  1
  N  N61  1  0.70861374  0.91698144  0.12208896  1
  N  N62  1  0.52001796  0.79951443  0.12462708  1
  Fe  Fe63  1  0.54167408  0.58318295  0.00470406  1
