# generated using pymatgen
data_Ti11OsN12
_symmetry_space_group_name_H-M   'P 1'
_cell_length_a   4.15133950
_cell_length_b   6.08510566
_cell_length_c   10.72467835
_cell_angle_alpha   90.00000374
_cell_angle_beta   90.00000000
_cell_angle_gamma   90.00336151
_symmetry_Int_Tables_number   1
_chemical_formula_structural   Ti11OsN12
_chemical_formula_sum   'Ti11 Os1 N12'
_cell_volume   270.91974025
_cell_formula_units_Z   1
loop_
 _symmetry_equiv_pos_site_id
 _symmetry_equiv_pos_as_xyz
  1  'x, y, z'
loop_
 _atom_site_type_symbol
 _atom_site_label
 _atom_site_symmetry_multiplicity
 _atom_site_fract_x
 _atom_site_fract_y
 _atom_site_fract_z
 _atom_site_occupancy
  Ti  Ti0  1  0.06235800  0.16434302  0.83478598  1
  Ti  Ti1  1  0.56246659  0.84371520  0.16666667  1
  Ti  Ti2  1  0.56243889  0.34458321  0.00253896  1
  Ti  Ti3  1  0.06239847  0.17948108  0.16666667  1
  Ti  Ti4  1  0.06249226  0.67967065  0.33256624  1
  Ti  Ti5  1  0.06235800  0.16434302  0.49854735  1
  Ti  Ti6  1  0.06249865  0.65747051  0.66666667  1
  Ti  Ti7  1  0.06249226  0.67967065  0.00076709  1
  Ti  Ti8  1  0.56243889  0.34458321  0.33079437  1
  Ti  Ti9  1  0.56249002  0.83003646  0.50637826  1
  Ti  Ti10  1  0.56249002  0.83003646  0.82695507  1
  N  N11  1  0.56252995  0.17894755  0.16666667  1
  N  N12  1  0.56247922  0.68106682  0.33317727  1
  N  N13  1  0.56241469  0.15509519  0.47892374  1
  N  N14  1  0.56258598  0.65309920  0.66666667  1
  N  N15  1  0.56241469  0.15509519  0.85440959  1
  N  N16  1  0.56247922  0.68106682  0.00015606  1
  N  N17  1  0.06250103  0.84656135  0.16666667  1
  N  N18  1  0.06243590  0.34823948  0.33351615  1
  N  N19  1  0.06254760  0.82577323  0.50500015  1
  N  N20  1  0.06286569  0.32612193  0.66666667  1
  N  N21  1  0.06254760  0.82577323  0.82833318  1
  N  N22  1  0.06243590  0.34823948  -0.00018282  1
  Os  Os23  1  0.56284047  0.25698705  0.66666667  1
