# generated using pymatgen
data_Ti11MnN12
_symmetry_space_group_name_H-M   'P 1'
_cell_length_a   4.20676256
_cell_length_b   6.04859616
_cell_length_c   10.49711386
_cell_angle_alpha   90.00000355
_cell_angle_beta   90.00000000
_cell_angle_gamma   89.99759453
_symmetry_Int_Tables_number   1
_chemical_formula_structural   Ti11MnN12
_chemical_formula_sum   'Ti11 Mn1 N12'
_cell_volume   267.09914430
_cell_formula_units_Z   1
loop_
 _symmetry_equiv_pos_site_id
 _symmetry_equiv_pos_as_xyz
  1  'x, y, z'
loop_
 _atom_site_type_symbol
 _atom_site_label
 _atom_site_symmetry_multiplicity
 _atom_site_fract_x
 _atom_site_fract_y
 _atom_site_fract_z
 _atom_site_occupancy
  Ti  Ti0  1  0.06256964  0.16461374  0.82935326  1
  Ti  Ti1  1  0.56238669  0.84263534  0.16666667  1
  Ti  Ti2  1  0.56244927  0.33731830  0.99540052  1
  Ti  Ti3  1  0.06241900  0.17764138  0.16666667  1
  Ti  Ti4  1  0.06244241  0.67257594  0.33266396  1
  Ti  Ti5  1  0.06256964  0.16461374  0.50398007  1
  Ti  Ti6  1  0.06260988  0.64731700  0.66666667  1
  Ti  Ti7  1  0.06244241  0.67257594  0.00066937  1
  Ti  Ti8  1  0.56244927  0.33731830  0.33793281  1
  Ti  Ti9  1  0.56254349  0.82898066  0.50416670  1
  Ti  Ti10  1  0.56254349  0.82898066  0.82916663  1
  N  N11  1  0.56250553  0.17894998  0.16666667  1
  N  N12  1  0.56247496  0.67294534  0.33189375  1
  N  N13  1  0.56262827  0.16098735  0.49909434  1
  N  N14  1  0.56259549  0.65606682  0.66666667  1
  N  N15  1  0.56262827  0.16098735  0.83423899  1
  N  N16  1  0.56247496  0.67294534  0.00143958  1
  N  N17  1  0.06235727  0.84598521  0.16666667  1
  N  N18  1  0.06251869  0.33919705  0.33752658  1
  N  N19  1  0.06252671  0.82632697  0.50346572  1
  N  N20  1  0.06247977  0.32233548  0.66666667  1
  N  N21  1  0.06252671  0.82632697  0.82986761  1
  N  N22  1  0.06251869  0.33919705  0.99580675  1
  Mn  Mn23  1  0.56233948  0.32317812  0.66666667  1
