# generated using pymatgen
data_Al3MoN4
_symmetry_space_group_name_H-M   'P 1'
_cell_length_a   5.87573195
_cell_length_b   7.99007339
_cell_length_c   12.60514166
_cell_angle_alpha   105.45232623
_cell_angle_beta   94.70428331
_cell_angle_gamma   107.59476670
_symmetry_Int_Tables_number   1
_chemical_formula_structural   Al3MoN4
_chemical_formula_sum   'Al18 Mo6 N24'
_cell_volume   535.12776329
_cell_formula_units_Z   6
loop_
 _symmetry_equiv_pos_site_id
 _symmetry_equiv_pos_as_xyz
  1  'x, y, z'
loop_
 _atom_site_type_symbol
 _atom_site_label
 _atom_site_symmetry_multiplicity
 _atom_site_fract_x
 _atom_site_fract_y
 _atom_site_fract_z
 _atom_site_occupancy
  Al  Al0  1  0.46248094  0.63082499  0.18951879  1
  Al  Al1  1  0.12012868  0.22163438  0.10657243  1
  Al  Al2  1  0.07687099  0.72827732  0.62172166  1
  Al  Al3  1  0.78737482  0.80342341  0.03035030  1
  Al  Al4  1  0.80425277  0.05985775  0.27152836  1
  Al  Al5  1  0.77009763  0.30952487  0.53192996  1
  Al  Al6  1  0.76833334  0.54926061  0.78064648  1
  Al  Al7  1  0.43826708  0.12976240  0.70381268  1
  Al  Al8  1  0.44855412  0.38721270  0.94917943  1
  Al  Al9  1  0.10512869  0.97856152  0.86472012  1
  Al  Al10  1  0.25182854  0.93846572  0.20373576  1
  Al  Al11  1  0.89913949  0.52571278  0.12659490  1
  Al  Al12  1  0.86855035  0.02625207  0.64213488  1
  Al  Al13  1  0.56818102  0.11634293  0.05633376  1
  Al  Al14  1  0.54278561  0.35555125  0.30279456  1
  Al  Al15  1  0.53269578  0.60977919  0.53899286  1
  Al  Al16  1  0.23499833  0.68959499  0.97125226  1
  Al  Al17  1  0.87962859  0.26763725  0.88823095  1
  Mo  Mo18  1  0.04889713  0.51996480  0.34534243  1
  Mo  Mo19  1  0.36247476  0.91081813  0.41867602  1
  Mo  Mo20  1  0.89865196  0.79311034  0.39166092  1
  Mo  Mo21  1  0.51069854  0.80534962  0.80758960  1
  Mo  Mo22  1  0.21380626  0.19673717  0.47896244  1
  Mo  Mo23  1  0.26133021  0.49270173  0.74717177  1
  N  N24  1  0.71573151  0.55121909  0.24427884  1
  N  N25  1  0.37846495  0.15864134  0.16764249  1
  N  N26  1  0.34428993  0.41280900  0.40983740  1
  N  N27  1  0.34334351  0.65477685  0.65004046  1
  N  N28  1  0.04572178  0.73804593  0.08496160  1
  N  N29  1  0.08054843  0.99225554  0.31943226  1
  N  N30  1  0.02032759  0.23681785  0.59383392  1
  N  N31  1  0.01860305  0.48833219  0.84930829  1
  N  N32  1  0.68226141  0.83386856  0.51206889  1
  N  N33  1  0.69810767  0.07146026  0.76070385  1
  N  N34  1  0.70349228  0.31912313  0.00486898  1
  N  N35  1  0.35675572  0.91365867  0.93337054  1
  N  N36  1  0.51312897  0.87615456  0.26821155  1
  N  N37  1  0.15636053  0.46524271  0.18767275  1
  N  N38  1  0.13458589  0.73480093  0.48365386  1
  N  N39  1  0.13280300  0.96803021  0.71389711  1
  N  N40  1  0.82361122  0.05001100  0.11762881  1
  N  N41  1  0.78706090  0.28009076  0.37608427  1
  N  N42  1  0.78821113  0.54786870  0.62622438  1
  N  N43  1  0.82140839  0.79448150  0.87710827  1
  N  N44  1  0.47827707  0.14808264  0.55861406  1
  N  N45  1  0.48416882  0.37190965  0.79773402  1
  N  N46  1  0.49248334  0.62901838  0.03851817  1
  N  N47  1  0.14509733  0.21694263  0.95485195  1
