# generated using pymatgen
data_Al11OsN12
_symmetry_space_group_name_H-M   'P 1'
_cell_length_a   5.02553919
_cell_length_b   5.79152449
_cell_length_c   7.10190719
_cell_angle_alpha   90.00000000
_cell_angle_beta   89.91444694
_cell_angle_gamma   90.00000000
_symmetry_Int_Tables_number   1
_chemical_formula_structural   Al11OsN12
_chemical_formula_sum   'Al11 Os1 N12'
_cell_volume   206.70456566
_cell_formula_units_Z   1
loop_
 _symmetry_equiv_pos_site_id
 _symmetry_equiv_pos_as_xyz
  1  'x, y, z'
loop_
 _atom_site_type_symbol
 _atom_site_label
 _atom_site_symmetry_multiplicity
 _atom_site_fract_x
 _atom_site_fract_y
 _atom_site_fract_z
 _atom_site_occupancy
  Al  Al0  1  0.50014192  0.24848716  0.99969281  1
  Al  Al1  1  0.33138893  -0.00000123  0.66878981  1
  Al  Al2  1  0.16666257  0.75065536  0.33333647  1
  Al  Al3  1  0.50014080  0.75151165  0.99968439  1
  Al  Al4  1  0.33512882  0.50000248  0.66922369  1
  Al  Al5  1  0.00194438  0.00000123  0.99787688  1
  Al  Al6  1  0.83319139  0.75151277  0.66697388  1
  Al  Al7  1  0.99820449  0.49999746  0.99744294  1
  Al  Al8  1  0.16667075  0.24934457  0.33333015  1
  Al  Al9  1  0.83319251  0.24848834  0.66698230  1
  Al  Al10  1  0.66666663  -0.00000000  0.33333331  1
  Os  Os11  1  0.66666663  0.49999997  0.33333331  1
  N  N12  1  0.16666424  0.24843876  0.83333211  1
  N  N13  1  0.49469567  0.24133580  0.50652875  1
  N  N14  1  0.33725579  0.00000024  0.16788501  1
  N  N15  1  0.16666906  0.75156123  0.83333451  1
  N  N16  1  0.49467332  0.75867016  0.50652736  1
  N  N17  1  0.31838983  0.50001339  0.16017777  1
  N  N18  1  0.83865996  0.24132977  0.16013927  1
  N  N19  1  0.66666669  -0.00000000  0.83333331  1
  N  N20  1  0.99607752  -0.00000024  0.49878165  1
  N  N21  1  0.83863761  0.75866413  0.16013788  1
  N  N22  1  0.66666669  0.49999997  0.83333331  1
  N  N23  1  0.01494348  0.49998655  0.50648889  1
