# generated using pymatgen
data_MnAl3N4
_symmetry_space_group_name_H-M   'P 1'
_cell_length_a   5.77718217
_cell_length_b   8.15009467
_cell_length_c   8.67152164
_cell_angle_alpha   89.95048522
_cell_angle_beta   90.09668157
_cell_angle_gamma   90.01066336
_symmetry_Int_Tables_number   1
_chemical_formula_structural   MnAl3N4
_chemical_formula_sum   'Mn6 Al18 N24'
_cell_volume   408.29422776
_cell_formula_units_Z   6
loop_
 _symmetry_equiv_pos_site_id
 _symmetry_equiv_pos_as_xyz
  1  'x, y, z'
loop_
 _atom_site_type_symbol
 _atom_site_label
 _atom_site_symmetry_multiplicity
 _atom_site_fract_x
 _atom_site_fract_y
 _atom_site_fract_z
 _atom_site_occupancy
  Al  Al0  1  0.24830824  0.74933364  0.49940194  1
  Al  Al1  1  0.75170003  0.74877503  0.49982395  1
  Al  Al2  1  0.50043752  0.50046955  0.33809194  1
  Al  Al3  1  0.74458710  0.25065350  0.50414748  1
  Al  Al4  1  0.99993424  0.99909238  0.33136505  1
  Al  Al5  1  0.24991206  0.74936552  0.16683454  1
  Al  Al6  1  0.50020012  0.00232062  0.33044523  1
  Al  Al7  1  0.75087608  0.74927774  0.16670923  1
  Al  Al8  1  0.00038078  0.50067669  0.99571605  1
  Al  Al9  1  0.00003092  0.00193231  0.99956322  1
  Al  Al10  1  0.25076244  0.74955957  0.83289768  1
  Al  Al11  1  0.50038237  0.00205135  0.00385744  1
  Al  Al12  1  0.75021991  0.75051087  0.83321860  1
  Al  Al13  1  0.00078222  0.50022295  0.66251456  1
  Al  Al14  1  0.49998577  0.49917202  0.67036479  1
  Al  Al15  1  0.25028737  0.25110111  0.83051075  1
  Al  Al16  1  0.74924927  0.24976132  0.83447420  1
  Al  Al17  1  0.50183226  -0.00014962  0.66731396  1
  Mn  Mn18  1  0.00314141  0.48778134  0.32924550  1
  Mn  Mn19  1  0.23958678  0.24719686  0.49725434  1
  Mn  Mn20  1  0.49931888  0.49146030  0.00559596  1
  Mn  Mn21  1  0.24820069  0.25674468  0.16998285  1
  Mn  Mn22  1  0.75466722  0.25750399  0.16874747  1
  Mn  Mn23  1  0.00560122  0.00476180  0.66277685  1
  N  N24  1  0.75041028  0.00073579  0.49983721  1
  N  N25  1  0.25522475  0.99658381  0.49679028  1
  N  N26  1  0.50134398  0.75007150  0.33277719  1
  N  N27  1  0.00005228  0.75160000  0.33322673  1
  N  N28  1  0.74602280  0.49878184  0.50323828  1
  N  N29  1  0.25644764  0.50235255  0.50313244  1
  N  N30  1  0.50259612  0.25207877  0.33446320  1
  N  N31  1  0.75047036  0.99898890  0.16669556  1
  N  N32  1  0.99498114  0.24128113  0.33899963  1
  N  N33  1  0.24958780  0.99973530  0.16658198  1
  N  N34  1  0.49933415  0.75302716  0.00013155  1
  N  N35  1  0.00099701  0.75000626  0.00037470  1
  N  N36  1  0.75034959  0.50358681  0.16668459  1
  N  N37  1  0.24927983  0.50318761  0.16794364  1
  N  N38  1  0.49353243  0.24368392  0.99270690  1
  N  N39  1  0.75046908  0.99965695  0.83479778  1
  N  N40  1  0.00334033  0.25211284  0.99576449  1
  N  N41  1  0.24830797  0.99980909  0.83161995  1
  N  N42  1  0.50022534  0.75112042  0.66676383  1
  N  N43  1  0.99983149  0.74938325  0.66571715  1
  N  N44  1  0.75479721  0.50072702  0.83092314  1
  N  N45  1  0.24577577  0.50080753  0.83000322  1
  N  N46  1  0.50265989  0.24800541  0.67001745  1
  N  N47  1  0.99357782  0.25310062  0.66995548  1
