# generated using pymatgen
data_Al11WN12
_symmetry_space_group_name_H-M   'P 1'
_cell_length_a   5.03759794
_cell_length_b   5.82001147
_cell_length_c   7.13192635
_cell_angle_alpha   90.00000000
_cell_angle_beta   90.11114017
_cell_angle_gamma   90.00000000
_symmetry_Int_Tables_number   1
_chemical_formula_structural   Al11WN12
_chemical_formula_sum   'Al11 W1 N12'
_cell_volume   209.09968362
_cell_formula_units_Z   1
loop_
 _symmetry_equiv_pos_site_id
 _symmetry_equiv_pos_as_xyz
  1  'x, y, z'
loop_
 _atom_site_type_symbol
 _atom_site_label
 _atom_site_symmetry_multiplicity
 _atom_site_fract_x
 _atom_site_fract_y
 _atom_site_fract_z
 _atom_site_occupancy
  Al  Al0  1  0.49958736  0.24743318  0.99808259  1
  Al  Al1  1  0.33183092  0.00000000  0.66812878  1
  Al  Al2  1  0.16666666  0.75295210  0.33333331  1
  Al  Al3  1  0.49958736  0.75256681  0.99808259  1
  Al  Al4  1  0.33371564  0.49999997  0.66975925  1
  Al  Al5  1  0.00150239  0.00000000  0.99853791  1
  Al  Al6  1  0.83374595  0.75256675  0.66858410  1
  Al  Al7  1  0.99961767  0.49999997  0.99690738  1
  Al  Al8  1  0.16666666  0.24704783  0.33333331  1
  Al  Al9  1  0.83374595  0.24743318  0.66858410  1
  Al  Al10  1  0.66666663  0.00000000  0.33333331  1
  W  W11  1  0.66666663  0.49999997  0.33333331  1
  N  N12  1  0.16666666  0.24794705  0.83333331  1
  N  N13  1  0.49296936  0.23972975  0.50826222  1
  N  N14  1  0.33802976  0.00000000  0.16828102  1
  N  N15  1  0.16666664  0.75205294  0.83333331  1
  N  N16  1  0.49296936  0.76027018  0.50826222  1
  N  N17  1  0.31735808  0.49999997  0.15871753  1
  N  N18  1  0.84036392  0.23972975  0.15840441  1
  N  N19  1  0.66666669  0.00000000  0.83333331  1
  N  N20  1  0.99530355  0.00000000  0.49838564  1
  N  N21  1  0.84036392  0.76027018  0.15840441  1
  N  N22  1  0.66666669  0.49999997  0.83333331  1
  N  N23  1  0.01597523  0.49999997  0.50794913  1
