# generated using pymatgen
data_Al3FeN4
_symmetry_space_group_name_H-M   'P 1'
_cell_length_a   5.75875313
_cell_length_b   8.13232021
_cell_length_c   8.63145080
_cell_angle_alpha   89.85491937
_cell_angle_beta   89.99436458
_cell_angle_gamma   89.90395926
_symmetry_Int_Tables_number   1
_chemical_formula_structural   Al3FeN4
_chemical_formula_sum   'Al18 Fe6 N24'
_cell_volume   404.22644966
_cell_formula_units_Z   6
loop_
 _symmetry_equiv_pos_site_id
 _symmetry_equiv_pos_as_xyz
  1  'x, y, z'
loop_
 _atom_site_type_symbol
 _atom_site_label
 _atom_site_symmetry_multiplicity
 _atom_site_fract_x
 _atom_site_fract_y
 _atom_site_fract_z
 _atom_site_occupancy
  Al  Al0  1  0.24769964  0.75008803  0.49912734  1
  Al  Al1  1  0.75250225  0.75045778  0.50013146  1
  Al  Al2  1  0.50424908  0.50009292  0.33833147  1
  Al  Al3  1  0.74453307  0.24928753  0.50534046  1
  Al  Al4  1  0.99795552  0.99859616  0.33151643  1
  Al  Al5  1  0.24967044  0.74996275  0.16743903  1
  Al  Al6  1  0.50052068  0.00422765  0.32943765  1
  Al  Al7  1  0.75213662  0.74928644  0.16695707  1
  Al  Al8  1  0.00255850  0.49882339  0.99637615  1
  Al  Al9  1  0.00107367  0.00412337  0.99965844  1
  Al  Al10  1  0.25033604  0.75041960  0.83294751  1
  Al  Al11  1  0.49931583  0.00147044  0.00325256  1
  Al  Al12  1  0.75111686  0.75074624  0.83346890  1
  Al  Al13  1  0.00063281  0.50021082  0.66215034  1
  Al  Al14  1  0.49984133  0.49891920  0.67203414  1
  Al  Al15  1  0.24841847  0.24983508  0.82943937  1
  Al  Al16  1  0.75010604  0.24969803  0.83455204  1
  Al  Al17  1  0.50041428  0.00063823  0.66694059  1
  Fe  Fe18  1  0.01075096  0.48232018  0.32818485  1
  Fe  Fe19  1  0.23716188  0.24840645  0.49487314  1
  Fe  Fe20  1  0.50178490  0.49093810  0.00858608  1
  Fe  Fe21  1  0.24804399  0.25622293  0.17224301  1
  Fe  Fe22  1  0.74410317  0.25966089  0.16483825  1
  Fe  Fe23  1  0.00573753  0.00590403  0.66201776  1
  N  N24  1  0.74749147  0.00190082  0.49828524  1
  N  N25  1  0.25226396  0.99991994  0.49760975  1
  N  N26  1  0.50035338  0.74995188  0.33325203  1
  N  N27  1  0.00003520  0.75478186  0.33257893  1
  N  N28  1  0.74632925  0.49821835  0.50462749  1
  N  N29  1  0.25715053  0.50100952  0.50395671  1
  N  N30  1  0.50022119  0.25271594  0.33466375  1
  N  N31  1  0.74831134  0.00057374  0.16473892  1
  N  N32  1  0.99085950  0.23673012  0.33275134  1
  N  N33  1  0.25084189  0.00062739  0.16639128  1
  N  N34  1  0.50080285  0.74926190  0.00143612  1
  N  N35  1  0.00151552  0.74916767  0.00095335  1
  N  N36  1  0.75087373  0.50251411  0.16598395  1
  N  N37  1  0.25708213  0.50084313  0.16614747  1
  N  N38  1  0.49339506  0.24633144  0.99611194  1
  N  N39  1  0.75166536  0.00057568  0.83436403  1
  N  N40  1  0.00342508  0.25257485  0.99656601  1
  N  N41  1  0.25225663  0.00015713  0.83435694  1
  N  N42  1  0.50011387  0.75134478  0.66672798  1
  N  N43  1  0.00038753  0.75025332  0.66576255  1
  N  N44  1  0.75327922  0.49962546  0.83269603  1
  N  N45  1  0.24707073  0.50037210  0.83102087  1
  N  N46  1  0.50040923  0.24824649  0.66999910  1
  N  N47  1  0.99320179  0.25196615  0.66917421  1
