# generated using pymatgen
data_Al3ReN4
_symmetry_space_group_name_H-M   'P 1'
_cell_length_a   5.88564926
_cell_length_b   7.99585261
_cell_length_c   12.59744956
_cell_angle_alpha   107.14875447
_cell_angle_beta   92.79034627
_cell_angle_gamma   108.48071907
_symmetry_Int_Tables_number   1
_chemical_formula_structural   Al3ReN4
_chemical_formula_sum   'Al18 Re6 N24'
_cell_volume   530.62576394
_cell_formula_units_Z   6
loop_
 _symmetry_equiv_pos_site_id
 _symmetry_equiv_pos_as_xyz
  1  'x, y, z'
loop_
 _atom_site_type_symbol
 _atom_site_label
 _atom_site_symmetry_multiplicity
 _atom_site_fract_x
 _atom_site_fract_y
 _atom_site_fract_z
 _atom_site_occupancy
  Al  Al0  1  0.45897177  0.64308721  0.19240960  1
  Al  Al1  1  0.11027564  0.22322103  0.10665658  1
  Al  Al2  1  0.07969660  0.72465868  0.62064673  1
  Al  Al3  1  0.77852588  0.80349890  0.02894299  1
  Al  Al4  1  0.77630638  0.07361933  0.27002208  1
  Al  Al5  1  0.77693344  0.30010686  0.52590485  1
  Al  Al6  1  0.77534444  0.53919329  0.77637320  1
  Al  Al7  1  0.44968919  0.11911053  0.70529502  1
  Al  Al8  1  0.44668848  0.38517415  0.94908290  1
  Al  Al9  1  0.10401801  0.97589708  0.86342339  1
  Al  Al10  1  0.22259268  0.94770736  0.20854980  1
  Al  Al11  1  0.89238766  0.53071480  0.12880039  1
  Al  Al12  1  0.89349892  0.03402565  0.64647915  1
  Al  Al13  1  0.55851473  0.11774903  0.05676940  1
  Al  Al14  1  0.52440234  0.36606696  0.30353614  1
  Al  Al15  1  0.54027642  0.59600935  0.54176772  1
  Al  Al16  1  0.22523085  0.68151670  0.96992162  1
  Al  Al17  1  0.88105225  0.26374006  0.88979069  1
  Re  Re18  1  0.05978720  0.53232883  0.34887916  1
  Re  Re19  1  0.44975750  0.88564983  0.42383883  1
  Re  Re20  1  0.92609576  0.81307137  0.39709471  1
  Re  Re21  1  0.50804515  0.79783110  0.80659459  1
  Re  Re22  1  0.23475935  0.16827211  0.47532282  1
  Re  Re23  1  0.27390323  0.47807640  0.73568209  1
  N  N24  1  0.71180051  0.56567867  0.24987113  1
  N  N25  1  0.36346763  0.16440570  0.16783420  1
  N  N26  1  0.31984017  0.41623817  0.41267918  1
  N  N27  1  0.34954607  0.65921646  0.64942025  1
  N  N28  1  0.03208589  0.74035415  0.08375314  1
  N  N29  1  0.03225327  0.01002809  0.31707265  1
  N  N30  1  0.02759345  0.24852933  0.59739471  1
  N  N31  1  0.01978635  0.47527101  0.84528730  1
  N  N32  1  0.70863593  0.82653038  0.52095682  1
  N  N33  1  0.70403528  0.06150836  0.76261499  1
  N  N34  1  0.69795396  0.32049000  0.00629271  1
  N  N35  1  0.35254432  0.90687147  0.93044655  1
  N  N36  1  0.47885267  0.88927862  0.26138575  1
  N  N37  1  0.14920461  0.47175633  0.18868724  1
  N  N38  1  0.16459643  0.75041508  0.48723026  1
  N  N39  1  0.13883114  0.96714357  0.71491440  1
  N  N40  1  0.80865507  0.05299928  0.11437155  1
  N  N41  1  0.78069842  0.30698806  0.37184471  1
  N  N42  1  0.79000980  0.54082860  0.62195429  1
  N  N43  1  0.81969364  0.79094659  0.87474689  1
  N  N44  1  0.49082138  0.12535021  0.55871319  1
  N  N45  1  0.48719227  0.36416225  0.79714691  1
  N  N46  1  0.48246294  0.62907600  0.03768789  1
  N  N47  1  0.14268498  0.21560702  0.95590883  1
