# generated using pymatgen
data_Al11SiN12
_symmetry_space_group_name_H-M   'P 1'
_cell_length_a   5.05453027
_cell_length_b   5.38656134
_cell_length_c   9.33897871
_cell_angle_alpha   90.00000282
_cell_angle_beta   90.00000000
_cell_angle_gamma   90.02221975
_symmetry_Int_Tables_number   1
_chemical_formula_structural   Al11SiN12
_chemical_formula_sum   'Al11 Si1 N12'
_cell_volume   254.26803325
_cell_formula_units_Z   1
loop_
 _symmetry_equiv_pos_site_id
 _symmetry_equiv_pos_as_xyz
  1  'x, y, z'
loop_
 _atom_site_type_symbol
 _atom_site_label
 _atom_site_symmetry_multiplicity
 _atom_site_fract_x
 _atom_site_fract_y
 _atom_site_fract_z
 _atom_site_occupancy
  Al  Al0  1  0.00797746  0.16763616  0.83310541  1
  Al  Al1  1  0.49765359  0.83661967  0.16666667  1
  Al  Al2  1  0.50162712  0.33550457  0.00032209  1
  Al  Al3  1  0.00193858  0.16681719  0.16666667  1
  Al  Al4  1  -0.00173541  0.66733579  0.33294115  1
  Al  Al5  1  0.00797746  0.16763616  0.50022792  1
  Al  Al6  1  0.00452112  0.66385737  0.66666667  1
  Al  Al7  1  -0.00173541  0.66733579  0.00039218  1
  Al  Al8  1  0.50162712  0.33550457  0.33301124  1
  Al  Al9  1  0.49561068  0.83234327  0.50124169  1
  Al  Al10  1  0.49561068  0.83234327  0.83209164  1
  N  N11  1  0.62355235  0.16915043  0.16666667  1
  N  N12  1  0.61952054  0.66998386  0.33452315  1
  N  N13  1  0.62297705  0.17359657  0.50909124  1
  N  N14  1  0.61860513  0.64414044  0.66666667  1
  N  N15  1  0.62297705  0.17359657  0.82424209  1
  N  N16  1  0.61952054  0.66998386  0.99881018  1
  N  N17  1  0.11957594  0.83328658  0.16666667  1
  N  N18  1  0.12286479  0.33400557  0.33407040  1
  N  N19  1  0.11760685  0.83300983  0.50074785  1
  N  N20  1  0.15259335  0.33230144  0.66666667  1
  N  N21  1  0.11760685  0.83300983  0.83258548  1
  N  N22  1  0.12286479  0.33400557  0.99926293  1
  Si  Si23  1  0.50866186  0.32699570  0.66666667  1
