# generated using pymatgen
data_Ti11CoN12
_symmetry_space_group_name_H-M   'P 1'
_cell_length_a   5.20141955
_cell_length_b   6.00127495
_cell_length_c   7.35193214
_cell_angle_alpha   90.00000000
_cell_angle_beta   90.11375998
_cell_angle_gamma   90.00000000
_symmetry_Int_Tables_number   1
_chemical_formula_structural   Ti11CoN12
_chemical_formula_sum   'Ti11 Co1 N12'
_cell_volume   229.49120378
_cell_formula_units_Z   1
loop_
 _symmetry_equiv_pos_site_id
 _symmetry_equiv_pos_as_xyz
  1  'x, y, z'
loop_
 _atom_site_type_symbol
 _atom_site_label
 _atom_site_symmetry_multiplicity
 _atom_site_fract_x
 _atom_site_fract_y
 _atom_site_fract_z
 _atom_site_occupancy
  Ti  Ti0  1  0.50183556  0.25018919  0.00545399  1
  Ti  Ti1  1  0.32141398  0.00000766  0.67275412  1
  Ti  Ti2  1  0.16666175  0.74591749  0.33329850  1
  Ti  Ti3  1  0.50198294  0.74980946  0.00536726  1
  Ti  Ti4  1  0.34513889  0.50002043  0.67180609  1
  Ti  Ti5  1  0.01191933  -0.00000766  0.99391257  1
  Ti  Ti6  1  0.83149775  0.74981074  0.66121270  1
  Ti  Ti7  1  0.98819442  0.49997951  0.99486054  1
  Ti  Ti8  1  0.16667157  0.25408244  0.33336812  1
  Ti  Ti9  1  0.83135037  0.25019053  0.66129943  1
  Ti  Ti10  1  0.66666663  0.00000000  0.33333331  1
  Co  Co11  1  0.66666663  0.49999997  0.33333331  1
  N  N12  1  0.16670226  0.25225530  0.83333661  1
  N  N13  1  0.49665899  0.24704674  0.50141545  1
  N  N14  1  0.33277607  -0.00002330  0.16837590  1
  N  N15  1  0.16663104  0.74774469  0.83333001  1
  N  N16  1  0.49667175  0.75300001  0.50147490  1
  N  N17  1  0.32827122  0.49998814  0.16481412  1
  N  N18  1  0.83666153  0.24699992  0.16519173  1
  N  N19  1  0.66666669  0.00000000  0.83333331  1
  N  N20  1  0.00055724  0.00002330  0.49829076  1
  N  N21  1  0.83667429  0.75295319  0.16525118  1
  N  N22  1  0.66666669  0.49999997  0.83333331  1
  N  N23  1  0.00506209  0.50001180  0.50185254  1
