# generated using pymatgen
data_NbAl15N16
_symmetry_space_group_name_H-M   'P 1'
_cell_length_a   6.33208341
_cell_length_b   6.33208341
_cell_length_c   10.04082829
_cell_angle_alpha   90.00000000
_cell_angle_beta   90.00000000
_cell_angle_gamma   119.99999997
_symmetry_Int_Tables_number   1
_chemical_formula_structural   NbAl15N16
_chemical_formula_sum   'Nb1 Al15 N16'
_cell_volume   348.65301550
_cell_formula_units_Z   1
loop_
 _symmetry_equiv_pos_site_id
 _symmetry_equiv_pos_as_xyz
  1  'x, y, z'
loop_
 _atom_site_type_symbol
 _atom_site_label
 _atom_site_symmetry_multiplicity
 _atom_site_fract_x
 _atom_site_fract_y
 _atom_site_fract_z
 _atom_site_occupancy
  Nb  Nb0  1  0.16666667  0.33333333  0.22566541  1
  Al  Al1  1  0.33762580  0.16237420  0.99644572  1
  Al  Al2  1  0.16666667  0.33333333  0.75199566  1
  Al  Al3  1  0.33204138  0.16795862  0.50207384  1
  Al  Al4  1  0.16812710  0.83406355  0.25422150  1
  Al  Al5  1  0.33762580  0.67525161  0.99644572  1
  Al  Al6  1  0.16511604  0.83255801  0.74901326  1
  Al  Al7  1  0.33204138  0.66408276  0.50207384  1
  Al  Al8  1  0.66593645  0.33187290  0.25422150  1
  Al  Al9  1  0.82474839  0.16237420  0.99644572  1
  Al  Al10  1  0.66744199  0.33488396  0.74901326  1
  Al  Al11  1  0.83591724  0.16795862  0.50207384  1
  Al  Al12  1  0.66593645  0.83406355  0.25422150  1
  Al  Al13  1  0.83333333  0.66666667  0.00047029  1
  Al  Al14  1  0.66744199  0.83255801  0.74901326  1
  Al  Al15  1  0.83333333  0.66666667  0.50075700  1
  N  N16  1  0.16666667  0.33333333  0.44848886  1
  N  N17  1  0.34823575  0.15176425  0.18590851  1
  N  N18  1  0.16666667  0.33333333  0.94949377  1
  N  N19  1  0.33312097  0.16687903  0.69427748  1
  N  N20  1  0.16733716  0.83366858  0.44412906  1
  N  N21  1  0.34823575  0.69647150  0.18590851  1
  N  N22  1  0.16372469  0.83186234  0.93890697  1
  N  N23  1  0.33312097  0.66624196  0.69427748  1
  N  N24  1  0.66633142  0.33266284  0.44412906  1
  N  N25  1  0.80352850  0.15176425  0.18590851  1
  N  N26  1  0.66813766  0.33627531  0.93890697  1
  N  N27  1  0.83375804  0.16687903  0.69427748  1
  N  N28  1  0.66633142  0.83366858  0.44412906  1
  N  N29  1  0.83333333  0.66666667  0.19353590  1
  N  N30  1  0.66813766  0.83186234  0.93890697  1
  N  N31  1  0.83333333  0.66666667  0.69066410  1
