# generated using pymatgen
data_Al3MoN4
_symmetry_space_group_name_H-M   'P 1'
_cell_length_a   6.42982850
_cell_length_b   6.42982851
_cell_length_c   5.19896468
_cell_angle_alpha   89.61405596
_cell_angle_beta   90.38594403
_cell_angle_gamma   123.39520949
_symmetry_Int_Tables_number   1
_chemical_formula_structural   Al3MoN4
_chemical_formula_sum   'Al6 Mo2 N8'
_cell_volume   179.44617971
_cell_formula_units_Z   2
loop_
 _symmetry_equiv_pos_site_id
 _symmetry_equiv_pos_as_xyz
  1  'x, y, z'
loop_
 _atom_site_type_symbol
 _atom_site_label
 _atom_site_symmetry_multiplicity
 _atom_site_fract_x
 _atom_site_fract_y
 _atom_site_fract_z
 _atom_site_occupancy
  Al  Al0  1  0.17031777  0.32968223  0.50141212  1
  Al  Al1  1  0.33575670  0.16424330  0.00232558  1
  Al  Al2  1  0.16417792  0.83582208  0.49863736  1
  Al  Al3  1  0.66417792  0.33582208  0.49863736  1
  Al  Al4  1  0.67031777  0.82968223  0.50141212  1
  Al  Al5  1  0.83575670  0.66424330  0.00232558  1
  N  N6  1  0.18354931  0.31645069  0.86424072  1
  N  N7  1  0.33094209  0.16905791  0.37149472  1
  N  N8  1  0.16072274  0.83927726  0.86680386  1
  N  N9  1  0.32961342  0.67038658  0.41079975  1
  N  N10  1  0.66072274  0.33927726  0.86680386  1
  N  N11  1  0.82961342  0.17038658  0.41079975  1
  N  N12  1  0.68354931  0.81645069  0.86424072  1
  N  N13  1  0.83094209  0.66905791  0.37149472  1
  Mo  Mo14  1  0.32492008  0.67507992  0.01228589  1
  Mo  Mo15  1  0.82492008  0.17507992  0.01228589  1
