# generated using pymatgen
data_ZrTi15N16
_symmetry_space_group_name_H-M   'P 1'
_cell_length_a   7.07749245
_cell_length_b   7.07749244
_cell_length_c   8.52087703
_cell_angle_alpha   90.00000000
_cell_angle_beta   90.00000000
_cell_angle_gamma   119.99999999
_symmetry_Int_Tables_number   1
_chemical_formula_structural   ZrTi15N16
_chemical_formula_sum   'Zr1 Ti15 N16'
_cell_volume   369.63557154
_cell_formula_units_Z   1
loop_
 _symmetry_equiv_pos_site_id
 _symmetry_equiv_pos_as_xyz
  1  'x, y, z'
loop_
 _atom_site_type_symbol
 _atom_site_label
 _atom_site_symmetry_multiplicity
 _atom_site_fract_x
 _atom_site_fract_y
 _atom_site_fract_z
 _atom_site_occupancy
  Zr  Zr0  1  0.16666667  0.33333333  0.22041027  1
  Ti  Ti1  1  0.33489566  0.16510434  0.96619912  1
  Ti  Ti2  1  0.16666667  0.33333333  0.72064791  1
  Ti  Ti3  1  0.33489727  0.16510273  0.47486315  1
  Ti  Ti4  1  0.16529747  0.83264873  0.22051140  1
  Ti  Ti5  1  0.33489566  0.66979131  0.96619912  1
  Ti  Ti6  1  0.16568980  0.83284489  0.72055405  1
  Ti  Ti7  1  0.33489727  0.66979455  0.47486315  1
  Ti  Ti8  1  0.66735127  0.33470253  0.22051140  1
  Ti  Ti9  1  0.83020869  0.16510434  0.96619912  1
  Ti  Ti10  1  0.66715511  0.33431020  0.72055405  1
  Ti  Ti11  1  0.83020545  0.16510273  0.47486315  1
  Ti  Ti12  1  0.66735127  0.83264873  0.22051140  1
  Ti  Ti13  1  0.83333333  0.66666667  0.97202956  1
  Ti  Ti14  1  0.66715511  0.83284489  0.72055405  1
  Ti  Ti15  1  0.83333333  0.66666667  0.46871696  1
  N  N16  1  0.16666667  0.33333333  0.47734530  1
  N  N17  1  0.34152837  0.15847163  0.22047429  1
  N  N18  1  0.16666667  0.33333333  0.96370475  1
  N  N19  1  0.33402635  0.16597365  0.72049209  1
  N  N20  1  0.16627701  0.83313850  0.47148402  1
  N  N21  1  0.34152837  0.68305674  0.22047429  1
  N  N22  1  0.16625138  0.83312569  0.96948892  1
  N  N23  1  0.33402635  0.66805270  0.72049209  1
  N  N24  1  0.66686150  0.33372299  0.47148402  1
  N  N25  1  0.81694326  0.15847163  0.22047429  1
  N  N26  1  0.66687431  0.33374862  0.96948892  1
  N  N27  1  0.83194730  0.16597365  0.72049209  1
  N  N28  1  0.66686150  0.83313850  0.47148402  1
  N  N29  1  0.83333333  0.66666667  0.22046611  1
  N  N30  1  0.66687431  0.83312569  0.96948892  1
  N  N31  1  0.83333333  0.66666667  0.72047805  1
