# generated using pymatgen
data_Al3ReN4
_symmetry_space_group_name_H-M   'P 1'
_cell_length_a   6.39390128
_cell_length_b   6.39390129
_cell_length_c   5.20967925
_cell_angle_alpha   90.14317629
_cell_angle_beta   89.85682373
_cell_angle_gamma   123.55494744
_symmetry_Int_Tables_number   1
_chemical_formula_structural   Al3ReN4
_chemical_formula_sum   'Al6 Re2 N8'
_cell_volume   177.48911486
_cell_formula_units_Z   2
loop_
 _symmetry_equiv_pos_site_id
 _symmetry_equiv_pos_as_xyz
  1  'x, y, z'
loop_
 _atom_site_type_symbol
 _atom_site_label
 _atom_site_symmetry_multiplicity
 _atom_site_fract_x
 _atom_site_fract_y
 _atom_site_fract_z
 _atom_site_occupancy
  Al  Al0  1  0.17181836  0.32818164  0.50476677  1
  Al  Al1  1  0.33713534  0.16286466  0.00572549  1
  Al  Al2  1  0.16545763  0.83454237  0.49368518  1
  Al  Al3  1  0.66545763  0.33454237  0.49368518  1
  Al  Al4  1  0.67181836  0.82818164  0.50476677  1
  Al  Al5  1  0.83713534  0.66286466  0.00572549  1
  N  N6  1  0.18158318  0.31841682  0.87188651  1
  N  N7  1  0.33089876  0.16910124  0.37222961  1
  N  N8  1  0.15878192  0.84121808  0.86010859  1
  N  N9  1  0.33204047  0.66795953  0.40817339  1
  N  N10  1  0.65878192  0.34121808  0.86010859  1
  N  N11  1  0.83204047  0.16795953  0.40817339  1
  N  N12  1  0.68158318  0.81841682  0.87188651  1
  N  N13  1  0.83089876  0.66910124  0.37222961  1
  Re  Re14  1  0.32228434  0.67771566  0.01142445  1
  Re  Re15  1  0.82228434  0.17771566  0.01142445  1
