# generated using pymatgen
data_ZrTaTiNbCoC5
_symmetry_space_group_name_H-M   'P 1'
_cell_length_a   6.29579207
_cell_length_b   6.98944120
_cell_length_c   10.38123985
_cell_angle_alpha   101.15513719
_cell_angle_beta   90.34562531
_cell_angle_gamma   102.63719176
_symmetry_Int_Tables_number   1
_chemical_formula_structural   ZrTaTiNbCoC5
_chemical_formula_sum   'Zr4 Ta4 Ti4 Nb4 Co4 C20'
_cell_volume   436.77050045
_cell_formula_units_Z   4
loop_
 _symmetry_equiv_pos_site_id
 _symmetry_equiv_pos_as_xyz
  1  'x, y, z'
loop_
 _atom_site_type_symbol
 _atom_site_label
 _atom_site_symmetry_multiplicity
 _atom_site_fract_x
 _atom_site_fract_y
 _atom_site_fract_z
 _atom_site_occupancy
  C  C0  1  0.57353083  0.31278105  0.96414862  1
  C  C1  1  0.07951250  0.30264145  0.96739045  1
  C  C2  1  0.82060627  0.29154723  0.44766815  1
  C  C3  1  0.33216837  0.30550735  0.44308423  1
  C  C4  1  0.61606553  0.49786928  0.24458439  1
  C  C5  1  0.13263961  0.50100175  0.24405167  1
  C  C6  1  0.92304039  0.70113989  0.04693480  1
  C  C7  1  0.43127938  0.69216760  0.04369976  1
  C  C8  1  0.87614189  0.50397812  0.75283658  1
  C  C9  1  0.38173198  0.50737002  0.75150614  1
  C  C10  1  0.66729888  0.69606534  0.55363854  1
  C  C11  1  0.18096475  0.68662994  0.55523774  1
  C  C12  1  0.97193219  0.90278581  0.34310825  1
  C  C13  1  0.47707898  0.89623455  0.34312569  1
  C  C14  1  0.77464702  0.10555496  0.14833622  1
  C  C15  1  0.27116565  0.10848270  0.14408767  1
  C  C16  1  0.72712498  0.88747140  0.86123574  1
  C  C17  1  0.21693816  0.89408352  0.85784864  1
  C  C18  1  0.01935142  0.10316695  0.64710516  1
  C  C19  1  0.53101190  0.10362142  0.64992812  1
  Co  Co20  1  0.98322507  0.01961721  0.99991346  1
  Co  Co21  1  0.35314725  0.40303837  0.09733088  1
  Co  Co22  1  0.10392784  0.38295853  0.57064225  1
  Co  Co23  1  0.67338197  0.60248259  0.90986334  1
  Nb  Nb24  1  0.19516745  0.79354067  0.19881692  1
  Nb  Nb25  1  0.69791390  0.79514023  0.19080049  1
  Nb  Nb26  1  0.15135533  0.59579874  0.90629219  1
  Nb  Nb27  1  0.94688375  0.78770081  0.71002129  1
  Ta  Ta28  1  0.49602669  0.00664259  0.00397081  1
  Ta  Ta29  1  0.75142358  0.00147466  0.49781813  1
  Ta  Ta30  1  0.05386497  0.20387438  0.29015607  1
  Ta  Ta31  1  0.45164738  0.79156462  0.70129821  1
  Ti  Ti32  1  0.54809499  0.20687002  0.30034323  1
  Ti  Ti33  1  0.84251044  0.40126710  0.10259727  1
  Ti  Ti34  1  0.59699857  0.40217408  0.60141421  1
  Ti  Ti35  1  0.39993578  0.59645324  0.39783658  1
  Zr  Zr36  1  0.25028486  0.00235800  0.49837901  1
  Zr  Zr37  1  0.30040107  0.20714136  0.80343428  1
  Zr  Zr38  1  0.80170667  0.20463659  0.80678636  1
  Zr  Zr39  1  0.89787176  0.59516589  0.40272849  1
