# generated using pymatgen
data_ZrTaTiCoMoC5
_symmetry_space_group_name_H-M   'P 1'
_cell_length_a   6.25890621
_cell_length_b   6.96688615
_cell_length_c   10.28173550
_cell_angle_alpha   101.00953512
_cell_angle_beta   90.08621735
_cell_angle_gamma   102.61084247
_symmetry_Int_Tables_number   1
_chemical_formula_structural   ZrTaTiCoMoC5
_chemical_formula_sum   'Zr4 Ta4 Ti4 Co4 Mo4 C20'
_cell_volume   429.03075747
_cell_formula_units_Z   4
loop_
 _symmetry_equiv_pos_site_id
 _symmetry_equiv_pos_as_xyz
  1  'x, y, z'
loop_
 _atom_site_type_symbol
 _atom_site_label
 _atom_site_symmetry_multiplicity
 _atom_site_fract_x
 _atom_site_fract_y
 _atom_site_fract_z
 _atom_site_occupancy
  C  C0  1  0.57331752  0.31178799  0.96214031  1
  C  C1  1  0.08032806  0.30332303  0.97043873  1
  C  C2  1  0.81947759  0.29295382  0.44659742  1
  C  C3  1  0.33161113  0.30735013  0.44244423  1
  C  C4  1  0.61611064  0.50256615  0.24101898  1
  C  C5  1  0.13693712  0.50500996  0.24142395  1
  C  C6  1  0.92682460  0.70688996  0.04040807  1
  C  C7  1  0.43811056  0.67880069  0.04174350  1
  C  C8  1  0.87687890  0.50529268  0.75128058  1
  C  C9  1  0.36374024  0.49934497  0.74484072  1
  C  C10  1  0.66751750  0.69607674  0.55488478  1
  C  C11  1  0.17998552  0.68753291  0.55609781  1
  C  C12  1  0.97327522  0.90168195  0.34022114  1
  C  C13  1  0.47897942  0.89789803  0.34024478  1
  C  C14  1  0.77151468  0.10830806  0.14899017  1
  C  C15  1  0.26727733  0.10129010  0.14130416  1
  C  C16  1  0.73505970  0.88522419  0.86048750  1
  C  C17  1  0.21238127  0.88643604  0.86211793  1
  C  C18  1  0.01793828  0.10578450  0.64605669  1
  C  C19  1  0.52909700  0.10026399  0.64982087  1
  Co  Co20  1  0.96959838  0.02788300  0.00865146  1
  Co  Co21  1  0.35310993  0.38647234  0.09396496  1
  Co  Co22  1  0.11531012  0.39334656  0.57702785  1
  Co  Co23  1  0.67565933  0.61158702  0.90909708  1
  Mo  Mo24  1  0.19896823  0.79428540  0.20576757  1
  Mo  Mo25  1  0.70403127  0.80134391  0.18749677  1
  Mo  Mo26  1  0.16461647  0.60376477  0.92450005  1
  Mo  Mo27  1  0.94214476  0.77233532  0.71214557  1
  Ta  Ta28  1  0.49863098  0.00095952  0.00311918  1
  Ta  Ta29  1  0.75231017  0.00280863  0.49594581  1
  Ta  Ta30  1  0.05495440  0.20538120  0.28769065  1
  Ta  Ta31  1  0.44905743  0.78810391  0.70359690  1
  Ti  Ti32  1  0.54833610  0.20922644  0.29643322  1
  Ti  Ti33  1  0.83873042  0.40539044  0.10286208  1
  Ti  Ti34  1  0.58849616  0.40016415  0.59860851  1
  Ti  Ti35  1  0.40163443  0.60068680  0.39655017  1
  Zr  Zr36  1  0.24904858  0.00147463  0.49857063  1
  Zr  Zr37  1  0.29629199  0.20607654  0.80481212  1
  Zr  Zr38  1  0.80361181  0.20753060  0.80712490  1
  Zr  Zr39  1  0.89909679  0.59736290  0.40347219  1
