# generated using pymatgen
data_ZrTaTiNbZnC5
_symmetry_space_group_name_H-M   'P 1'
_cell_length_a   6.36488921
_cell_length_b   7.16716791
_cell_length_c   10.54366976
_cell_angle_alpha   102.02963549
_cell_angle_beta   89.79092050
_cell_angle_gamma   102.88786411
_symmetry_Int_Tables_number   1
_chemical_formula_structural   ZrTaTiNbZnC5
_chemical_formula_sum   'Zr4 Ta4 Ti4 Nb4 Zn4 C20'
_cell_volume   458.10737437
_cell_formula_units_Z   4
loop_
 _symmetry_equiv_pos_site_id
 _symmetry_equiv_pos_as_xyz
  1  'x, y, z'
loop_
 _atom_site_type_symbol
 _atom_site_label
 _atom_site_symmetry_multiplicity
 _atom_site_fract_x
 _atom_site_fract_y
 _atom_site_fract_z
 _atom_site_occupancy
  C  C0  1  0.57689915  0.28732265  0.95971663  1
  C  C1  1  0.07298857  0.32230898  0.95124995  1
  C  C2  1  0.81302497  0.28555666  0.44423548  1
  C  C3  1  0.33406056  0.30229865  0.43851752  1
  C  C4  1  0.62966608  0.49936775  0.25064455  1
  C  C5  1  0.12659555  0.49555206  0.25109939  1
  C  C6  1  0.92945245  0.68879253  0.05883499  1
  C  C7  1  0.42436376  0.71244564  0.05144139  1
  C  C8  1  0.87422413  0.50965492  0.74802428  1
  C  C9  1  0.37792645  0.50923089  0.74692307  1
  C  C10  1  0.66671520  0.69639619  0.55264239  1
  C  C11  1  0.18559208  0.70308088  0.55076514  1
  C  C12  1  0.96957342  0.90189369  0.34643425  1
  C  C13  1  0.48035078  0.89371621  0.34647515  1
  C  C14  1  0.77306109  0.10026338  0.15154084  1
  C  C15  1  0.27984724  0.08777043  0.15730112  1
  C  C16  1  0.71433335  0.89875172  0.84495906  1
  C  C17  1  0.22629931  0.89540105  0.85042958  1
  C  C18  1  0.01398380  0.08660852  0.64867944  1
  C  C19  1  0.52878431  0.10785754  0.64578258  1
  Zn  Zn20  1  0.99817461  0.02367752  0.99442524  1
  Zn  Zn21  1  0.35556771  0.39795006  0.10577595  1
  Zn  Zn22  1  0.10604971  0.39869684  0.59454990  1
  Zn  Zn23  1  0.65066184  0.59136274  0.90719803  1
  Nb  Nb24  1  0.20519511  0.79372403  0.19978484  1
  Nb  Nb25  1  0.70051819  0.78891814  0.19503512  1
  Nb  Nb26  1  0.14232823  0.60478018  0.90561620  1
  Nb  Nb27  1  0.93956604  0.79941703  0.70892605  1
  Ta  Ta28  1  0.50461259  0.00241884  0.00100984  1
  Ta  Ta29  1  0.74804892  0.00209370  0.49463210  1
  Ta  Ta30  1  0.05787830  0.19721262  0.29010375  1
  Ta  Ta31  1  0.44468550  0.79209866  0.69951422  1
  Ti  Ti32  1  0.55087681  0.20424508  0.29770251  1
  Ti  Ti33  1  0.84964687  0.39722068  0.10227574  1
  Ti  Ti34  1  0.59546519  0.40400110  0.60101819  1
  Ti  Ti35  1  0.40113171  0.59597612  0.39871520  1
  Zr  Zr36  1  0.24936741  0.00556599  0.49825350  1
  Zr  Zr37  1  0.30099346  0.21278285  0.80525363  1
  Zr  Zr38  1  0.80030516  0.21068438  0.79951646  1
  Zr  Zr39  1  0.90118437  0.59290308  0.40499668  1
