# generated using pymatgen
data_ZrTaTiNbAgC5
_symmetry_space_group_name_H-M   'P 1'
_cell_length_a   6.42151003
_cell_length_b   7.21286450
_cell_length_c   10.67840548
_cell_angle_alpha   102.12502174
_cell_angle_beta   89.63363222
_cell_angle_gamma   102.80343311
_symmetry_Int_Tables_number   1
_chemical_formula_structural   ZrTaTiNbAgC5
_chemical_formula_sum   'Zr4 Ta4 Ti4 Nb4 Ag4 C20'
_cell_volume   471.12151208
_cell_formula_units_Z   4
loop_
 _symmetry_equiv_pos_site_id
 _symmetry_equiv_pos_as_xyz
  1  'x, y, z'
loop_
 _atom_site_type_symbol
 _atom_site_label
 _atom_site_symmetry_multiplicity
 _atom_site_fract_x
 _atom_site_fract_y
 _atom_site_fract_z
 _atom_site_occupancy
  C  C0  1  0.57798492  0.28124014  0.95588692  1
  C  C1  1  0.06878489  0.33439863  0.94495704  1
  C  C2  1  0.80907543  0.28441432  0.44339753  1
  C  C3  1  0.34148511  0.29943451  0.43498148  1
  C  C4  1  0.64173660  0.50523552  0.25275440  1
  C  C5  1  0.12745942  0.49389485  0.25561455  1
  C  C6  1  0.93542013  0.68903275  0.06574094  1
  C  C7  1  0.41885399  0.72107766  0.05069933  1
  C  C8  1  0.86742590  0.51443382  0.74905563  1
  C  C9  1  0.37652965  0.50887913  0.74205253  1
  C  C10  1  0.66712522  0.69661771  0.55219745  1
  C  C11  1  0.18766624  0.70526231  0.55010684  1
  C  C12  1  0.97092607  0.90199582  0.34783301  1
  C  C13  1  0.48259064  0.89269557  0.34824462  1
  C  C14  1  0.77235002  0.10445226  0.15402162  1
  C  C15  1  0.28910055  0.08220913  0.16497893  1
  C  C16  1  0.70556723  0.89562602  0.83928565  1
  C  C17  1  0.23230483  0.89637093  0.84869715  1
  C  C18  1  0.01185483  0.08647098  0.64987798  1
  C  C19  1  0.52657779  0.10809065  0.64403822  1
  Ag  Ag20  1  0.99489402  0.02218072  0.99194462  1
  Ag  Ag21  1  0.35422656  0.39299640  0.10456054  1
  Ag  Ag22  1  0.09779501  0.39226584  0.59209060  1
  Ag  Ag23  1  0.64749909  0.59385968  0.90975729  1
  Nb  Nb24  1  0.21515255  0.78685596  0.20593308  1
  Nb  Nb25  1  0.71176976  0.78227360  0.20064343  1
  Nb  Nb26  1  0.13622591  0.61856494  0.91323918  1
  Nb  Nb27  1  0.92339325  0.79893772  0.70826870  1
  Ta  Ta28  1  0.50696754  0.00483790  0.00205349  1
  Ta  Ta29  1  0.74547662  0.00095371  0.49424588  1
  Ta  Ta30  1  0.06757657  0.19417159  0.28918765  1
  Ta  Ta31  1  0.43389690  0.79391146  0.69503644  1
  Ti  Ti32  1  0.55850131  0.19831408  0.29765171  1
  Ti  Ti33  1  0.85742608  0.39417131  0.10227005  1
  Ti  Ti34  1  0.58942584  0.40072393  0.59526582  1
  Ti  Ti35  1  0.40482396  0.59325872  0.39890146  1
  Zr  Zr36  1  0.24825292  0.00628928  0.49760125  1
  Zr  Zr37  1  0.29636997  0.21631885  0.80279255  1
  Zr  Zr38  1  0.79785570  0.21606871  0.79683869  1
  Zr  Zr39  1  0.90165097  0.59121291  0.40729576  1
