# generated using pymatgen
data_NbAl11N12
_symmetry_space_group_name_H-M   'P 1'
_cell_length_a   5.02177550
_cell_length_b   5.47997774
_cell_length_c   9.52894817
_cell_angle_alpha   90.00000295
_cell_angle_beta   90.00000000
_cell_angle_gamma   90.00239284
_symmetry_Int_Tables_number   1
_chemical_formula_structural   NbAl11N12
_chemical_formula_sum   'Nb1 Al11 N12'
_cell_volume   262.22920157
_cell_formula_units_Z   1
loop_
 _symmetry_equiv_pos_site_id
 _symmetry_equiv_pos_as_xyz
  1  'x, y, z'
loop_
 _atom_site_type_symbol
 _atom_site_label
 _atom_site_symmetry_multiplicity
 _atom_site_fract_x
 _atom_site_fract_y
 _atom_site_fract_z
 _atom_site_occupancy
  Al  Al0  1  0.00744106  0.16445792  0.83890538  1
  Al  Al1  1  0.50289768  0.83239237  0.16666667  1
  Al  Al2  1  0.50058960  0.33257400  0.00675208  1
  Al  Al3  1  0.00167728  0.16482694  0.16666669  1
  Al  Al4  1  0.00238386  0.66491159  0.33213905  1
  Al  Al5  1  0.00744082  0.16445792  0.49442801  1
  Al  Al6  1  0.00788254  0.67752978  0.66666674  1
  Al  Al7  1  0.00238380  0.66491156  0.00119429  1
  Al  Al8  1  0.50058968  0.33257383  0.32658133  1
  Al  Al9  1  0.49978762  0.83385820  0.49323873  1
  Al  Al10  1  0.49978748  0.83385800  0.84009459  1
  N  N11  1  0.62136913  0.16271320  0.16666665  1
  N  N12  1  0.62064175  0.66190797  0.33106657  1
  N  N13  1  0.62687383  0.15478163  0.48019029  1
  N  N14  1  0.62557141  0.70619544  0.66666664  1
  N  N15  1  0.62687374  0.15478180  0.85314296  1
  N  N16  1  0.62064178  0.66190800  0.00226673  1
  N  N17  1  0.12011234  0.83268003  0.16666664  1
  N  N18  1  0.12172177  0.33405091  0.33046853  1
  N  N19  1  0.12201622  0.83199877  0.49721441  1
  N  N20  1  0.06831646  0.33343700  0.66666658  1
  N  N21  1  0.12201627  0.83199876  0.83611902  1
  N  N22  1  0.12172175  0.33405092  0.00286479  1
  Nb  Nb23  1  0.54926212  0.33314349  0.66666665  1
