# generated using pymatgen
data_ZrTaTiNbPtC5
_symmetry_space_group_name_H-M   'P 1'
_cell_length_a   6.37446411
_cell_length_b   7.07505773
_cell_length_c   10.57673241
_cell_angle_alpha   101.11360254
_cell_angle_beta   90.50118168
_cell_angle_gamma   102.58247641
_symmetry_Int_Tables_number   1
_chemical_formula_structural   ZrTaTiNbPtC5
_chemical_formula_sum   'Zr4 Ta4 Ti4 Nb4 Pt4 C20'
_cell_volume   456.17930748
_cell_formula_units_Z   4
loop_
 _symmetry_equiv_pos_site_id
 _symmetry_equiv_pos_as_xyz
  1  'x, y, z'
loop_
 _atom_site_type_symbol
 _atom_site_label
 _atom_site_symmetry_multiplicity
 _atom_site_fract_x
 _atom_site_fract_y
 _atom_site_fract_z
 _atom_site_occupancy
  C  C0  1  0.57768305  0.30233830  0.96128395  1
  C  C1  1  0.07511958  0.31354598  0.96340631  1
  C  C2  1  0.81185106  0.28625185  0.44359387  1
  C  C3  1  0.34155526  0.30043631  0.43643584  1
  C  C4  1  0.62523445  0.50052432  0.24922943  1
  C  C5  1  0.12735368  0.49895664  0.24995819  1
  C  C6  1  0.92376141  0.70346685  0.05463964  1
  C  C7  1  0.42289515  0.70361892  0.04498790  1
  C  C8  1  0.89780940  0.49808005  0.73640316  1
  C  C9  1  0.38332836  0.51560420  0.75437450  1
  C  C10  1  0.66628918  0.69618896  0.55298014  1
  C  C11  1  0.18449707  0.69593903  0.55339764  1
  C  C12  1  0.97182392  0.90054803  0.34441798  1
  C  C13  1  0.47710170  0.89562000  0.34606202  1
  C  C14  1  0.76553403  0.10706395  0.15541006  1
  C  C15  1  0.27259709  0.10600695  0.14418169  1
  C  C16  1  0.72360539  0.88972939  0.85132085  1
  C  C17  1  0.22007726  0.89811314  0.85582955  1
  C  C18  1  0.01800132  0.09373955  0.64936535  1
  C  C19  1  0.52997167  0.10561342  0.64915439  1
  Pt  Pt20  1  0.97984363  0.01579896  0.00762354  1
  Pt  Pt21  1  0.35677068  0.41124824  0.10186104  1
  Pt  Pt22  1  0.10986166  0.38263460  0.58282883  1
  Pt  Pt23  1  0.66974343  0.58608303  0.89681580  1
  Nb  Nb24  1  0.20036507  0.78487003  0.20909195  1
  Nb  Nb25  1  0.70237135  0.79747137  0.20090590  1
  Nb  Nb26  1  0.13174078  0.61501866  0.90689063  1
  Nb  Nb27  1  0.94200278  0.79408285  0.70200577  1
  Ta  Ta28  1  0.49834924  0.99109407  0.00212377  1
  Ta  Ta29  1  0.74523085  0.99598679  0.49458709  1
  Ta  Ta30  1  0.05420403  0.20219684  0.29389885  1
  Ta  Ta31  1  0.44900093  0.79333552  0.69531601  1
  Ti  Ti32  1  0.54942992  0.20404781  0.29902649  1
  Ti  Ti33  1  0.84125995  0.39753091  0.10492600  1
  Ti  Ti34  1  0.59695726  0.39980382  0.59604513  1
  Ti  Ti35  1  0.40212998  0.59658188  0.40288595  1
  Zr  Zr36  1  0.25080640  0.00497187  0.49700237  1
  Zr  Zr37  1  0.30354314  0.21404701  0.80229534  1
  Zr  Zr38  1  0.80290736  0.20698325  0.80076985  1
  Zr  Zr39  1  0.89739152  0.59482666  0.40666724  1
