# generated using pymatgen
data_TaAl11N12
_symmetry_space_group_name_H-M   'P 1'
_cell_length_a   5.02461306
_cell_length_b   5.47756934
_cell_length_c   9.52339595
_cell_angle_alpha   90.00000295
_cell_angle_beta   90.00000000
_cell_angle_gamma   90.00627092
_symmetry_Int_Tables_number   1
_chemical_formula_structural   TaAl11N12
_chemical_formula_sum   'Ta1 Al11 N12'
_cell_volume   262.10924870
_cell_formula_units_Z   1
loop_
 _symmetry_equiv_pos_site_id
 _symmetry_equiv_pos_as_xyz
  1  'x, y, z'
loop_
 _atom_site_type_symbol
 _atom_site_label
 _atom_site_symmetry_multiplicity
 _atom_site_fract_x
 _atom_site_fract_y
 _atom_site_fract_z
 _atom_site_occupancy
  Al  Al0  1  0.00879041  0.16449932  0.83891553  1
  Al  Al1  1  0.50256887  0.83281977  0.16666675  1
  Al  Al2  1  0.49998129  0.33299811  0.00632362  1
  Al  Al3  1  0.00097065  0.16470726  0.16666667  1
  Al  Al4  1  0.00210329  0.66485086  0.33211868  1
  Al  Al5  1  0.00879010  0.16449938  0.49441784  1
  Al  Al6  1  0.01037537  0.67750531  0.66666685  1
  Al  Al7  1  0.00210320  0.66485100  0.00121473  1
  Al  Al8  1  0.49998092  0.33299844  0.32700934  1
  Al  Al9  1  0.49943006  0.83326055  0.49360130  1
  Al  Al10  1  0.49943011  0.83326132  0.83973267  1
  N  N11  1  0.62091767  0.16332365  0.16666654  1
  N  N12  1  0.62077691  0.66233473  0.33108709  1
  N  N13  1  0.62720601  0.15519327  0.48117247  1
  N  N14  1  0.62775931  0.70353853  0.66666735  1
  N  N15  1  0.62720613  0.15519432  0.85215987  1
  N  N16  1  0.62077690  0.66233476  0.00224648  1
  N  N17  1  0.11998142  0.83265934  0.16666664  1
  N  N18  1  0.12134685  0.33394381  0.33034901  1
  N  N19  1  0.12212026  0.83224608  0.49710197  1
  N  N20  1  0.06733370  0.33327935  0.66666686  1
  N  N21  1  0.12212064  0.83224620  0.83623163  1
  N  N22  1  0.12134705  0.33394388  0.00298426  1
  Ta  Ta23  1  0.54658290  0.33351075  0.66666586  1
