# generated using pymatgen
data_ZrTaTiNbCuC5
_symmetry_space_group_name_H-M   'P 1'
_cell_length_a   6.33506400
_cell_length_b   7.14010728
_cell_length_c   10.51035986
_cell_angle_alpha   102.47040906
_cell_angle_beta   89.45661805
_cell_angle_gamma   102.81129866
_symmetry_Int_Tables_number   1
_chemical_formula_structural   ZrTaTiNbCuC5
_chemical_formula_sum   'Zr4 Ta4 Ti4 Nb4 Cu4 C20'
_cell_volume   452.27512505
_cell_formula_units_Z   4
loop_
 _symmetry_equiv_pos_site_id
 _symmetry_equiv_pos_as_xyz
  1  'x, y, z'
loop_
 _atom_site_type_symbol
 _atom_site_label
 _atom_site_symmetry_multiplicity
 _atom_site_fract_x
 _atom_site_fract_y
 _atom_site_fract_z
 _atom_site_occupancy
  C  C0  1  0.57272503  0.29814762  0.96339488  1
  C  C1  1  0.07554875  0.32573212  0.95562052  1
  C  C2  1  0.81832309  0.28735980  0.44606106  1
  C  C3  1  0.33703830  0.30167306  0.43986825  1
  C  C4  1  0.62866349  0.49760852  0.24880559  1
  C  C5  1  0.13394535  0.49118151  0.24838210  1
  C  C6  1  0.93123780  0.68949782  0.05855220  1
  C  C7  1  0.43161523  0.71262210  0.04398120  1
  C  C8  1  0.86610770  0.51482457  0.75349893  1
  C  C9  1  0.37260705  0.51036404  0.74452511  1
  C  C10  1  0.66729179  0.69708348  0.55191180  1
  C  C11  1  0.18150964  0.69749425  0.55465709  1
  C  C12  1  0.97256225  0.89873690  0.34584614  1
  C  C13  1  0.48193096  0.89322014  0.34614179  1
  C  C14  1  0.77830128  0.09997328  0.14936615  1
  C  C15  1  0.28496479  0.08447137  0.15916545  1
  C  C16  1  0.70950268  0.89464027  0.84571310  1
  C  C17  1  0.22099798  0.90091731  0.85467404  1
  C  C18  1  0.01436545  0.09732311  0.64926684  1
  C  C19  1  0.52804053  0.10800799  0.64690281  1
  Cu  Cu20  1  0.96981386  0.03577348  0.97826453  1
  Cu  Cu21  1  0.35194920  0.37185930  0.10965449  1
  Cu  Cu22  1  0.10418514  0.39215256  0.58708860  1
  Cu  Cu23  1  0.65698776  0.59304730  0.91476605  1
  Nb  Nb24  1  0.20929632  0.79103053  0.20107501  1
  Nb  Nb25  1  0.70418330  0.78332012  0.19185253  1
  Nb  Nb26  1  0.14551570  0.61344650  0.90906938  1
  Nb  Nb27  1  0.93666160  0.79878867  0.71158569  1
  Ta  Ta28  1  0.50145432  0.00655774  0.00286151  1
  Ta  Ta29  1  0.74961024  0.00104755  0.49471150  1
  Ta  Ta30  1  0.06161665  0.19380535  0.28973348  1
  Ta  Ta31  1  0.44275644  0.79800397  0.69800058  1
  Ti  Ti32  1  0.55550301  0.19882661  0.29782809  1
  Ti  Ti33  1  0.85715021  0.39477289  0.10288001  1
  Ti  Ti34  1  0.59243075  0.40374105  0.59820306  1
  Ti  Ti35  1  0.40531390  0.59150913  0.39517257  1
  Zr  Zr36  1  0.24983206  0.00570940  0.49881477  1
  Zr  Zr37  1  0.29795612  0.21783924  0.80653100  1
  Zr  Zr38  1  0.79763727  0.21754624  0.80063448  1
  Zr  Zr39  1  0.90286705  0.59034312  0.40493755  1
