# generated using pymatgen
data_HfTaTiNbVC5
_symmetry_space_group_name_H-M   'P 1'
_cell_length_a   7.03100000
_cell_length_b   4.47300000
_cell_length_c   7.03400000
_cell_angle_alpha   90.00000000
_cell_angle_beta   90.00000000
_cell_angle_gamma   90.00000000
_symmetry_Int_Tables_number   1
_chemical_formula_structural   HfTaTiNbVC5
_chemical_formula_sum   'Hf2 Ta2 Ti2 Nb2 V2 C10'
_cell_volume   221.21692954
_cell_formula_units_Z   2
loop_
 _symmetry_equiv_pos_site_id
 _symmetry_equiv_pos_as_xyz
  1  'x, y, z'
loop_
 _atom_site_type_symbol
 _atom_site_label
 _atom_site_symmetry_multiplicity
 _atom_site_fract_x
 _atom_site_fract_y
 _atom_site_fract_z
 _atom_site_occupancy
  C  C0  1  0.70676365  0.00000000  0.90927476  1
  C  C1  1  0.49578591  0.00000000  0.49671328  1
  C  C2  1  0.60058435  0.50000000  0.18717936  1
  C  C3  1  0.89833298  0.00000000  0.28869554  1
  C  C4  1  0.99714057  0.50000000  0.00040863  1
  C  C5  1  0.29765859  0.00000000  0.10057838  1
  C  C6  1  0.40445929  0.50000000  0.81013019  1
  C  C7  1  0.80461335  0.50000000  0.60558646  1
  C  C8  1  0.10213600  0.00000000  0.70720379  1
  C  C9  1  0.19672347  0.50000000  0.39390257  1
  Hf  Hf10  1  0.49944377  0.50000000  0.49775834  1
  Hf  Hf11  1  0.80057527  0.00000000  0.60251303  1
  Nb  Nb12  1  0.40221088  0.00000000  0.81131604  1
  Nb  Nb13  1  0.09805742  0.50000000  0.71188653  1
  Ta  Ta14  1  0.19982318  0.00000000  0.39122278  1
  Ta  Ta15  1  0.89990533  0.50000000  0.28837759  1
  Ti  Ti16  1  0.30366221  0.50000000  0.09810937  1
  Ti  Ti17  1  0.60397429  0.00000000  0.19548706  1
  V  V18  1  0.69664148  0.50000000  0.90572220  1
  V  V19  1  0.99150802  0.00000000  0.99793407  1
