# generated using pymatgen
data_HfTaTiNbVC5
_symmetry_space_group_name_H-M   'P 1'
_cell_length_a   6.99100000
_cell_length_b   4.43300000
_cell_length_c   6.99400000
_cell_angle_alpha   90.00000000
_cell_angle_beta   90.00000000
_cell_angle_gamma   90.00000000
_symmetry_Int_Tables_number   1
_chemical_formula_structural   HfTaTiNbVC5
_chemical_formula_sum   'Hf2 Ta2 Ti2 Nb2 V2 C10'
_cell_volume   216.75177438
_cell_formula_units_Z   2
loop_
 _symmetry_equiv_pos_site_id
 _symmetry_equiv_pos_as_xyz
  1  'x, y, z'
loop_
 _atom_site_type_symbol
 _atom_site_label
 _atom_site_symmetry_multiplicity
 _atom_site_fract_x
 _atom_site_fract_y
 _atom_site_fract_z
 _atom_site_occupancy
  C  C0  1  0.70713659  0.00000000  0.90939664  1
  C  C1  1  0.49592229  0.00000000  0.49661415  1
  C  C2  1  0.60003057  0.50000000  0.18700835  1
  C  C3  1  0.89785242  0.00000000  0.28863298  1
  C  C4  1  0.99728994  0.50000000  0.00036679  1
  C  C5  1  0.29730139  0.00000000  0.10042425  1
  C  C6  1  0.40491508  0.50000000  0.81012708  1
  C  C7  1  0.80444415  0.50000000  0.60587976  1
  C  C8  1  0.10232623  0.00000000  0.70731419  1
  C  C9  1  0.19661935  0.50000000  0.39399985  1
  Hf  Hf10  1  0.49949097  0.50000000  0.49760845  1
  Hf  Hf11  1  0.80064361  0.00000000  0.60255656  1
  Nb  Nb12  1  0.40273983  0.00000000  0.81087220  1
  Nb  Nb13  1  0.09882489  0.50000000  0.71145018  1
  Ta  Ta14  1  0.19927562  0.00000000  0.39195738  1
  Ta  Ta15  1  0.89927109  0.50000000  0.28883709  1
  Ti  Ti16  1  0.30299188  0.50000000  0.09823509  1
  Ti  Ti17  1  0.60324457  0.00000000  0.19548018  1
  V  V18  1  0.69719672  0.50000000  0.90514968  1
  V  V19  1  0.99248281  0.00000000  0.99808914  1
