# generated using pymatgen
data_HfTaTiNbMoC5
_symmetry_space_group_name_H-M   'P 1'
_cell_length_a   7.02900000
_cell_length_b   4.43200000
_cell_length_c   7.02800000
_cell_angle_alpha   90.00000000
_cell_angle_beta   90.00000000
_cell_angle_gamma   90.00000000
_symmetry_Int_Tables_number   1
_chemical_formula_structural   HfTaTiNbMoC5
_chemical_formula_sum   'Hf2 Ta2 Ti2 Nb2 Mo2 C10'
_cell_volume   218.93996678
_cell_formula_units_Z   2
loop_
 _symmetry_equiv_pos_site_id
 _symmetry_equiv_pos_as_xyz
  1  'x, y, z'
loop_
 _atom_site_type_symbol
 _atom_site_label
 _atom_site_symmetry_multiplicity
 _atom_site_fract_x
 _atom_site_fract_y
 _atom_site_fract_z
 _atom_site_occupancy
  C  C0  1  0.69908917  0.00000000  0.89735774  1
  C  C1  1  0.49537503  0.00000000  0.50445284  1
  C  C2  1  0.59538890  0.50000000  0.20102315  1
  C  C3  1  0.90670069  0.00000000  0.30128022  1
  C  C4  1  0.00016893  0.50000000  0.99388159  1
  C  C5  1  0.29368124  0.00000000  0.10184954  1
  C  C6  1  0.40302522  0.50000000  0.79771755  1
  C  C7  1  0.79706552  0.50000000  0.60343916  1
  C  C8  1  0.10365268  0.00000000  0.69860175  1
  C  C9  1  0.20532320  0.50000000  0.40112465  1
  Hf  Hf10  1  0.59442643  0.00000000  0.20147514  1
  Hf  Hf11  1  0.90148816  0.50000000  0.29925064  1
  Mo  Mo12  1  0.29512906  0.50000000  0.10844670  1
  Mo  Mo13  1  0.00342172  0.00000000  0.00700182  1
  Nb  Nb14  1  0.80639119  0.00000000  0.59987276  1
  Nb  Nb15  1  0.10772710  0.50000000  0.69438068  1
  Ta  Ta16  1  0.39517914  0.00000000  0.79585507  1
  Ta  Ta17  1  0.69582596  0.50000000  0.89794027  1
  Ti  Ti18  1  0.49854845  0.50000000  0.49726939  1
  Ti  Ti19  1  0.20239222  0.00000000  0.39777934  1
