# generated using pymatgen
data_MnAl11N12
_symmetry_space_group_name_H-M   'P 1'
_cell_length_a   5.01057535
_cell_length_b   5.43361668
_cell_length_c   9.40067807
_cell_angle_alpha   90.00000286
_cell_angle_beta   90.00000000
_cell_angle_gamma   89.99235025
_symmetry_Int_Tables_number   1
_chemical_formula_structural   MnAl11N12
_chemical_formula_sum   'Mn1 Al11 N12'
_cell_volume   255.93858897
_cell_formula_units_Z   1
loop_
 _symmetry_equiv_pos_site_id
 _symmetry_equiv_pos_as_xyz
  1  'x, y, z'
loop_
 _atom_site_type_symbol
 _atom_site_label
 _atom_site_symmetry_multiplicity
 _atom_site_fract_x
 _atom_site_fract_y
 _atom_site_fract_z
 _atom_site_occupancy
  Al  Al0  1  0.00444995  0.16504818  0.83580560  1
  Al  Al1  1  0.50226288  0.83437075  0.16666667  1
  Al  Al2  1  0.50133200  0.33494642  0.00240741  1
  Al  Al3  1  0.00149364  0.16655614  0.16666667  1
  Al  Al4  1  0.00212264  0.66643244  0.33272743  1
  Al  Al5  1  0.00444995  0.16504818  0.49752773  1
  Al  Al6  1  0.00568140  0.67002773  0.66666667  1
  Al  Al7  1  0.00212264  0.66643244  0.00060590  1
  Al  Al8  1  0.50133200  0.33494642  0.33092592  1
  Al  Al9  1  0.50247909  0.83229237  0.49790602  1
  Al  Al10  1  0.50247909  0.83229237  0.83542731  1
  N  N11  1  0.62064827  0.16613954  0.16666667  1
  N  N12  1  0.62103766  0.66557133  0.33205826  1
  N  N13  1  0.62418783  0.16120511  0.49067011  1
  N  N14  1  0.62602700  0.68163163  0.66666667  1
  N  N15  1  0.62418783  0.16120511  0.84266322  1
  N  N16  1  0.62103766  0.66557133  0.00127507  1
  N  N17  1  0.12046811  0.83408625  0.16666667  1
  N  N18  1  0.12112063  0.33434706  0.33230856  1
  N  N19  1  0.12222378  0.83253736  0.49901892  1
  N  N20  1  0.11187173  0.33167230  0.66666667  1
  N  N21  1  0.12222378  0.83253736  0.83431441  1
  N  N22  1  0.12112063  0.33434706  0.00102477  1
  Mn  Mn23  1  0.51363977  0.33075514  0.66666667  1
