# generated using pymatgen
data_HfTaTiNbWC5
_symmetry_space_group_name_H-M   'P 1'
_cell_length_a   7.03100000
_cell_length_b   4.42700000
_cell_length_c   7.02700000
_cell_angle_alpha   90.00000000
_cell_angle_beta   90.00000000
_cell_angle_gamma   90.00000000
_symmetry_Int_Tables_number   1
_chemical_formula_structural   HfTaTiNbWC5
_chemical_formula_sum   'Hf2 Ta2 Ti2 Nb2 W2 C10'
_cell_volume   218.72406740
_cell_formula_units_Z   2
loop_
 _symmetry_equiv_pos_site_id
 _symmetry_equiv_pos_as_xyz
  1  'x, y, z'
loop_
 _atom_site_type_symbol
 _atom_site_label
 _atom_site_symmetry_multiplicity
 _atom_site_fract_x
 _atom_site_fract_y
 _atom_site_fract_z
 _atom_site_occupancy
  C  C0  1  0.70483962  0.00000000  0.90421043  1
  C  C1  1  0.49719825  0.00000000  0.49260813  1
  C  C2  1  0.59865268  0.50000000  0.19711938  1
  C  C3  1  0.90048926  0.00000000  0.29789429  1
  C  C4  1  0.00330908  0.50000000  0.00787334  1
  C  C5  1  0.30197633  0.00000000  0.10797204  1
  C  C6  1  0.40354074  0.50000000  0.80289385  1
  C  C7  1  0.79725749  0.50000000  0.59879569  1
  C  C8  1  0.09606407  0.00000000  0.69965704  1
  C  C9  1  0.19514233  0.50000000  0.39215131  1
  Hf  Hf10  1  0.40161974  0.00000000  0.80497417  1
  Hf  Hf11  1  0.10071806  0.50000000  0.69844285  1
  Nb  Nb12  1  0.50224121  0.50000000  0.49272074  1
  Nb  Nb13  1  0.79622694  0.00000000  0.59171858  1
  Ta  Ta14  1  0.69975189  0.50000000  0.90446533  1
  Ta  Ta15  1  0.00234786  0.00000000  0.00515743  1
  Ti  Ti16  1  0.30547552  0.50000000  0.10565963  1
  Ti  Ti17  1  0.59681213  0.00000000  0.20060453  1
  W  W18  1  0.20907869  0.00000000  0.39859798  1
  W  W19  1  0.88725816  0.50000000  0.29648326  1
