# generated using pymatgen
data_HfTaTiNbWC5
_symmetry_space_group_name_H-M   'P 1'
_cell_length_a   7.09100000
_cell_length_b   4.48700000
_cell_length_c   7.08700000
_cell_angle_alpha   90.00000000
_cell_angle_beta   90.00000000
_cell_angle_gamma   90.00000000
_symmetry_Int_Tables_number   1
_chemical_formula_structural   HfTaTiNbWC5
_chemical_formula_sum   'Hf2 Ta2 Ti2 Nb2 W2 C10'
_cell_volume   225.48932558
_cell_formula_units_Z   2
loop_
 _symmetry_equiv_pos_site_id
 _symmetry_equiv_pos_as_xyz
  1  'x, y, z'
loop_
 _atom_site_type_symbol
 _atom_site_label
 _atom_site_symmetry_multiplicity
 _atom_site_fract_x
 _atom_site_fract_y
 _atom_site_fract_z
 _atom_site_occupancy
  C  C0  1  0.70486348  0.00000000  0.90395209  1
  C  C1  1  0.49734923  0.00000000  0.49283918  1
  C  C2  1  0.59897126  0.50000000  0.19712765  1
  C  C3  1  0.90105771  0.00000000  0.29794751  1
  C  C4  1  0.00227712  0.50000000  0.00785256  1
  C  C5  1  0.30124112  0.00000000  0.10829601  1
  C  C6  1  0.40377850  0.50000000  0.80265274  1
  C  C7  1  0.79735196  0.50000000  0.59848025  1
  C  C8  1  0.09611095  0.00000000  0.69975895  1
  C  C9  1  0.19539275  0.50000000  0.39242202  1
  Hf  Hf10  1  0.40152008  0.00000000  0.80546768  1
  Hf  Hf11  1  0.10069531  0.50000000  0.69835598  1
  Nb  Nb12  1  0.50297802  0.50000000  0.49235644  1
  Nb  Nb13  1  0.79616389  0.00000000  0.59072189  1
  Ta  Ta14  1  0.69919498  0.50000000  0.90462743  1
  Ta  Ta15  1  0.00142696  0.00000000  0.00580031  1
  Ti  Ti16  1  0.30560218  0.50000000  0.10647063  1
  Ti  Ti17  1  0.59654978  0.00000000  0.20061708  1
  W  W18  1  0.21111257  0.00000000  0.39847956  1
  W  W19  1  0.88636215  0.50000000  0.29577403  1
