# generated using pymatgen
data_HfTaTiNbMoC5
_symmetry_space_group_name_H-M   'P 1'
_cell_length_a   7.08900000
_cell_length_b   4.49200000
_cell_length_c   7.08800000
_cell_angle_alpha   90.00000000
_cell_angle_beta   90.00000000
_cell_angle_gamma   90.00000000
_symmetry_Int_Tables_number   1
_chemical_formula_structural   HfTaTiNbMoC5
_chemical_formula_sum   'Hf2 Ta2 Ti2 Nb2 Mo2 C10'
_cell_volume   225.70876934
_cell_formula_units_Z   2
loop_
 _symmetry_equiv_pos_site_id
 _symmetry_equiv_pos_as_xyz
  1  'x, y, z'
loop_
 _atom_site_type_symbol
 _atom_site_label
 _atom_site_symmetry_multiplicity
 _atom_site_fract_x
 _atom_site_fract_y
 _atom_site_fract_z
 _atom_site_occupancy
  C  C0  1  0.69891139  0.00000000  0.89698620  1
  C  C1  1  0.49542691  0.00000000  0.50454855  1
  C  C2  1  0.59533359  0.50000000  0.20039670  1
  C  C3  1  0.90651776  0.00000000  0.30131983  1
  C  C4  1  0.00015386  0.50000000  0.99419825  1
  C  C5  1  0.29361003  0.00000000  0.10142375  1
  C  C6  1  0.40318264  0.50000000  0.79776452  1
  C  C7  1  0.79742783  0.50000000  0.60382201  1
  C  C8  1  0.10389125  0.00000000  0.69915498  1
  C  C9  1  0.20486745  0.50000000  0.40112481  1
  Hf  Hf10  1  0.59389615  0.00000000  0.20104422  1
  Hf  Hf11  1  0.90101410  0.50000000  0.29948607  1
  Mo  Mo12  1  0.29440536  0.50000000  0.10990764  1
  Mo  Mo13  1  0.00452308  0.00000000  0.00883407  1
  Nb  Nb14  1  0.80727095  0.00000000  0.60008612  1
  Nb  Nb15  1  0.10850245  0.50000000  0.69409134  1
  Ta  Ta16  1  0.39503103  0.00000000  0.79436729  1
  Ta  Ta17  1  0.69538188  0.50000000  0.89725286  1
  Ti  Ti18  1  0.49845584  0.50000000  0.49664613  1
  Ti  Ti19  1  0.20219648  0.00000000  0.39754469  1
