# generated using pymatgen
data_HfTaTiNbWC5
_symmetry_space_group_name_H-M   'P 1'
_cell_length_a   7.05100000
_cell_length_b   4.44700000
_cell_length_c   7.04700000
_cell_angle_alpha   90.00000000
_cell_angle_beta   90.00000000
_cell_angle_gamma   90.00000000
_symmetry_Int_Tables_number   1
_chemical_formula_structural   HfTaTiNbWC5
_chemical_formula_sum   'Hf2 Ta2 Ti2 Nb2 W2 C10'
_cell_volume   220.96430146
_cell_formula_units_Z   2
loop_
 _symmetry_equiv_pos_site_id
 _symmetry_equiv_pos_as_xyz
  1  'x, y, z'
loop_
 _atom_site_type_symbol
 _atom_site_label
 _atom_site_symmetry_multiplicity
 _atom_site_fract_x
 _atom_site_fract_y
 _atom_site_fract_z
 _atom_site_occupancy
  C  C0  1  0.70484954  0.00000000  0.90410339  1
  C  C1  1  0.49721094  0.00000000  0.49267052  1
  C  C2  1  0.59880125  0.50000000  0.19710247  1
  C  C3  1  0.90067748  0.00000000  0.29790881  1
  C  C4  1  0.00300563  0.50000000  0.00787816  1
  C  C5  1  0.30174927  0.00000000  0.10805512  1
  C  C6  1  0.40360724  0.50000000  0.80282206  1
  C  C7  1  0.79727187  0.50000000  0.59870711  1
  C  C8  1  0.09607377  0.00000000  0.69967032  1
  C  C9  1  0.19520618  0.50000000  0.39225829  1
  Hf  Hf10  1  0.40159545  0.00000000  0.80512251  1
  Hf  Hf11  1  0.10073376  0.50000000  0.69843674  1
  Nb  Nb12  1  0.50244790  0.50000000  0.49259832  1
  Nb  Nb13  1  0.79625974  0.00000000  0.59139972  1
  Ta  Ta14  1  0.69956006  0.50000000  0.90454726  1
  Ta  Ta15  1  0.00206229  0.00000000  0.00535453  1
  Ti  Ti16  1  0.30547725  0.50000000  0.10589992  1
  Ti  Ti17  1  0.59670256  0.00000000  0.20063614  1
  W  W18  1  0.20967679  0.00000000  0.39855185  1
  W  W19  1  0.88703105  0.50000000  0.29627676  1
