# generated using pymatgen
data_TiAl11N12
_symmetry_space_group_name_H-M   'P 1'
_cell_length_a   5.01104390
_cell_length_b   5.45637314
_cell_length_c   9.48140340
_cell_angle_alpha   90.00000290
_cell_angle_beta   90.00000000
_cell_angle_gamma   89.95051499
_symmetry_Int_Tables_number   1
_chemical_formula_structural   TiAl11N12
_chemical_formula_sum   'Ti1 Al11 N12'
_cell_volume   259.24162323
_cell_formula_units_Z   1
loop_
 _symmetry_equiv_pos_site_id
 _symmetry_equiv_pos_as_xyz
  1  'x, y, z'
loop_
 _atom_site_type_symbol
 _atom_site_label
 _atom_site_symmetry_multiplicity
 _atom_site_fract_x
 _atom_site_fract_y
 _atom_site_fract_z
 _atom_site_occupancy
  Al  Al0  1  0.00589095  0.16440585  0.83639230  1
  Al  Al1  1  0.50254652  0.83378529  0.16666667  1
  Al  Al2  1  0.50112233  0.33475855  0.00485331  1
  Al  Al3  1  0.00158304  0.16562079  0.16666667  1
  Al  Al4  1  0.00222521  0.66585614  0.33251086  1
  Al  Al5  1  0.00589095  0.16440585  0.49694103  1
  Al  Al6  1  0.00704630  0.67190666  0.66666667  1
  Al  Al7  1  0.00222521  0.66585614  0.00082247  1
  Al  Al8  1  0.50112233  0.33475855  0.32848002  1
  Al  Al9  1  0.50236554  0.83349729  0.49702730  1
  Al  Al10  1  0.50236554  0.83349729  0.83630603  1
  N  N11  1  0.62036223  0.16521229  0.16666667  1
  N  N12  1  0.62014760  0.66529349  0.33182161  1
  N  N13  1  0.62378677  0.16221524  0.48720118  1
  N  N14  1  0.62545306  0.68966230  0.66666667  1
  N  N15  1  0.62378677  0.16221524  0.84613215  1
  N  N16  1  0.62014760  0.66529349  0.00151172  1
  N  N17  1  0.11986782  0.83303509  0.16666667  1
  N  N18  1  0.12053341  0.33363466  0.33164195  1
  N  N19  1  0.12191172  0.83200273  0.49811484  1
  N  N20  1  0.09907135  0.33181674  0.66666667  1
  N  N21  1  0.12191172  0.83200273  0.83521849  1
  N  N22  1  0.12053341  0.33363466  0.00169138  1
  Ti  Ti23  1  0.52810262  0.32563292  0.66666667  1
