# generated using pymatgen
data_Al11ReN12
_symmetry_space_group_name_H-M   'P 1'
_cell_length_a   5.02661927
_cell_length_b   5.80260839
_cell_length_c   7.11380533
_cell_angle_alpha   90.00000000
_cell_angle_beta   90.04983388
_cell_angle_gamma   90.00000000
_symmetry_Int_Tables_number   1
_chemical_formula_structural   Al11ReN12
_chemical_formula_sum   'Al11 Re1 N12'
_cell_volume   207.49186091
_cell_formula_units_Z   1
loop_
 _symmetry_equiv_pos_site_id
 _symmetry_equiv_pos_as_xyz
  1  'x, y, z'
loop_
 _atom_site_type_symbol
 _atom_site_label
 _atom_site_symmetry_multiplicity
 _atom_site_fract_x
 _atom_site_fract_y
 _atom_site_fract_z
 _atom_site_occupancy
  Al  Al0  1  0.49986747  0.24765345  0.99896294  1
  Al  Al1  1  0.33173285  -0.00000569  0.66844888  1
  Al  Al2  1  0.16673939  0.75250069  0.33333778  1
  Al  Al3  1  0.49983693  0.75236916  0.99894483  1
  Al  Al4  1  0.33474672  0.50001255  0.66916982  1
  Al  Al5  1  0.00160046  0.00000569  0.99821781  1
  Al  Al6  1  0.83346584  0.75234648  0.66770375  1
  Al  Al7  1  0.99858659  0.49998739  0.99749681  1
  Al  Al8  1  0.16659393  0.24749924  0.33332884  1
  Al  Al9  1  0.83349638  0.24763083  0.66772186  1
  Al  Al10  1  0.66666663  -0.00000000  0.33333331  1
  Re  Re11  1  0.66666663  0.49999997  0.33333331  1
  N  N12  1  0.16667105  0.24837408  0.83331699  1
  N  N13  1  0.49326150  0.24087940  0.50781097  1
  N  N14  1  0.33791747  -0.00001061  0.16808500  1
  N  N15  1  0.16666225  0.75162591  0.83334963  1
  N  N16  1  0.49322050  0.75918366  0.50785981  1
  N  N17  1  0.31892832  0.49998091  0.16034871  1
  N  N18  1  0.84011278  0.24081627  0.15880682  1
  N  N19  1  0.66666669  -0.00000000  0.83333331  1
  N  N20  1  0.99541584  0.00001061  0.49858166  1
  N  N21  1  0.84007178  0.75912053  0.15885566  1
  N  N22  1  0.66666669  0.49999997  0.83333331  1
  N  N23  1  0.01440499  0.50001903  0.50631795  1
