# generated using pymatgen
data_HfTaTiNbVC5
_symmetry_space_group_name_H-M   'P 1'
_cell_length_a   6.98600000
_cell_length_b   4.42800000
_cell_length_c   6.98900000
_cell_angle_alpha   90.00000000
_cell_angle_beta   90.00000000
_cell_angle_gamma   90.00000000
_symmetry_Int_Tables_number   1
_chemical_formula_structural   HfTaTiNbVC5
_chemical_formula_sum   'Hf2 Ta2 Ti2 Nb2 V2 C10'
_cell_volume   216.19778191
_cell_formula_units_Z   2
loop_
 _symmetry_equiv_pos_site_id
 _symmetry_equiv_pos_as_xyz
  1  'x, y, z'
loop_
 _atom_site_type_symbol
 _atom_site_label
 _atom_site_symmetry_multiplicity
 _atom_site_fract_x
 _atom_site_fract_y
 _atom_site_fract_z
 _atom_site_occupancy
  C  C0  1  0.70717405  0.00000000  0.90940242  1
  C  C1  1  0.49591362  0.00000000  0.49661570  1
  C  C2  1  0.59995202  0.50000000  0.18695327  1
  C  C3  1  0.89778042  0.00000000  0.28861040  1
  C  C4  1  0.99730649  0.50000000  0.00036836  1
  C  C5  1  0.29724227  0.00000000  0.10044418  1
  C  C6  1  0.40500689  0.50000000  0.81012835  1
  C  C7  1  0.80445577  0.50000000  0.60588213  1
  C  C8  1  0.10236933  0.00000000  0.70732968  1
  C  C9  1  0.19659577  0.50000000  0.39402262  1
  Hf  Hf10  1  0.49949005  0.50000000  0.49758383  1
  Hf  Hf11  1  0.80064896  0.00000000  0.60255466  1
  Nb  Nb12  1  0.40281566  0.00000000  0.81082947  1
  Nb  Nb13  1  0.09891087  0.50000000  0.71139884  1
  Ta  Ta14  1  0.19921132  0.00000000  0.39205554  1
  Ta  Ta15  1  0.89918960  0.50000000  0.28888196  1
  Ti  Ti16  1  0.30288537  0.50000000  0.09826405  1
  Ti  Ti17  1  0.60314901  0.00000000  0.19547316  1
  V  V18  1  0.69728958  0.50000000  0.90508958  1
  V  V19  1  0.99261294  0.00000000  0.99811181  1
