# generated using pymatgen
data_Al11CoN12
_symmetry_space_group_name_H-M   'P 1'
_cell_length_a   5.03221275
_cell_length_b   5.42731403
_cell_length_c   9.40076301
_cell_angle_alpha   90.00000286
_cell_angle_beta   90.00000000
_cell_angle_gamma   89.99707784
_symmetry_Int_Tables_number   1
_chemical_formula_structural   Al11CoN12
_chemical_formula_sum   'Al11 Co1 N12'
_cell_volume   256.74798768
_cell_formula_units_Z   1
loop_
 _symmetry_equiv_pos_site_id
 _symmetry_equiv_pos_as_xyz
  1  'x, y, z'
loop_
 _atom_site_type_symbol
 _atom_site_label
 _atom_site_symmetry_multiplicity
 _atom_site_fract_x
 _atom_site_fract_y
 _atom_site_fract_z
 _atom_site_occupancy
  Al  Al0  1  0.00462047  0.16609858  0.83408419  1
  Al  Al1  1  0.50290624  0.83403735  0.16666667  1
  Al  Al2  1  0.50210658  0.33451412  0.00100106  1
  Al  Al3  1  0.00261601  0.16663121  0.16666667  1
  Al  Al4  1  0.00275584  0.66660401  0.33318879  1
  Al  Al5  1  0.00462047  0.16609858  0.49924914  1
  Al  Al6  1  0.00472046  0.66807751  0.66666667  1
  Al  Al7  1  0.00275584  0.66660401  0.00014454  1
  Al  Al8  1  0.50210658  0.33451412  0.33233227  1
  Al  Al9  1  0.50196667  0.83205456  0.49905890  1
  Al  Al10  1  0.50196667  0.83205456  0.83427443  1
  N  N11  1  0.62196585  0.16675619  0.16666667  1
  N  N12  1  0.62215078  0.66622245  0.33271111  1
  N  N13  1  0.62465655  0.16286919  0.49507239  1
  N  N14  1  0.62497591  0.67526640  0.66666667  1
  N  N15  1  0.62465655  0.16286919  0.83826094  1
  N  N16  1  0.62215078  0.66622245  0.00062222  1
  N  N17  1  0.12182413  0.83355737  0.16666667  1
  N  N18  1  0.12220232  0.33372606  0.33289913  1
  N  N19  1  0.12265853  0.83297927  0.49954258  1
  N  N20  1  0.11157155  0.33321279  0.66666667  1
  N  N21  1  0.12265853  0.83297927  0.83379075  1
  N  N22  1  0.12220232  0.33372606  0.00043420  1
  Co  Co23  1  0.50318438  0.33232472  0.66666667  1
