# generated using pymatgen
data_HfTaTiNbVC5
_symmetry_space_group_name_H-M   'P 1'
_cell_length_a   7.00600000
_cell_length_b   4.44800000
_cell_length_c   7.00900000
_cell_angle_alpha   90.00000000
_cell_angle_beta   90.00000000
_cell_angle_gamma   90.00000000
_symmetry_Int_Tables_number   1
_chemical_formula_structural   HfTaTiNbVC5
_chemical_formula_sum   'Hf2 Ta2 Ti2 Nb2 V2 C10'
_cell_volume   218.41928019
_cell_formula_units_Z   2
loop_
 _symmetry_equiv_pos_site_id
 _symmetry_equiv_pos_as_xyz
  1  'x, y, z'
loop_
 _atom_site_type_symbol
 _atom_site_label
 _atom_site_symmetry_multiplicity
 _atom_site_fract_x
 _atom_site_fract_y
 _atom_site_fract_z
 _atom_site_occupancy
  C  C0  1  0.70695166  0.00000000  0.90930286  1
  C  C1  1  0.49586410  0.00000000  0.49666186  1
  C  C2  1  0.60026352  0.50000000  0.18707711  1
  C  C3  1  0.89806280  0.00000000  0.28867915  1
  C  C4  1  0.99722345  0.50000000  0.00038247  1
  C  C5  1  0.29747637  0.00000000  0.10050341  1
  C  C6  1  0.40471887  0.50000000  0.81012752  1
  C  C7  1  0.80452608  0.50000000  0.60574286  1
  C  C8  1  0.10223647  0.00000000  0.70726064  1
  C  C9  1  0.19668537  0.50000000  0.39396868  1
  Hf  Hf10  1  0.49948605  0.50000000  0.49767078  1
  Hf  Hf11  1  0.80059031  0.00000000  0.60250540  1
  Nb  Nb12  1  0.40252542  0.00000000  0.81107388  1
  Nb  Nb13  1  0.09848007  0.50000000  0.71161580  1
  Ta  Ta14  1  0.19952082  0.00000000  0.39167067  1
  Ta  Ta15  1  0.89954996  0.50000000  0.28865391  1
  Ti  Ti16  1  0.30329351  0.50000000  0.09821045  1
  Ti  Ti17  1  0.60356529  0.00000000  0.19549825  1
  V  V18  1  0.69696489  0.50000000  0.90540018  1
  V  V19  1  0.99201499  0.00000000  0.99799409  1
