# generated using pymatgen
data_HfTaTiNbVC5
_symmetry_space_group_name_H-M   'P 1'
_cell_length_a   6.99600000
_cell_length_b   4.43800000
_cell_length_c   6.99900000
_cell_angle_alpha   90.00000000
_cell_angle_beta   90.00000000
_cell_angle_gamma   90.00000000
_symmetry_Int_Tables_number   1
_chemical_formula_structural   HfTaTiNbVC5
_chemical_formula_sum   'Hf2 Ta2 Ti2 Nb2 V2 C10'
_cell_volume   217.30668775
_cell_formula_units_Z   2
loop_
 _symmetry_equiv_pos_site_id
 _symmetry_equiv_pos_as_xyz
  1  'x, y, z'
loop_
 _atom_site_type_symbol
 _atom_site_label
 _atom_site_symmetry_multiplicity
 _atom_site_fract_x
 _atom_site_fract_y
 _atom_site_fract_z
 _atom_site_occupancy
  C  C0  1  0.70706509  0.00000000  0.90934963  1
  C  C1  1  0.49588635  0.00000000  0.49664960  1
  C  C2  1  0.60009980  0.50000000  0.18700283  1
  C  C3  1  0.89790066  0.00000000  0.28864423  1
  C  C4  1  0.99726404  0.50000000  0.00038181  1
  C  C5  1  0.29734225  0.00000000  0.10048450  1
  C  C6  1  0.40489313  0.50000000  0.81012721  1
  C  C7  1  0.80449924  0.50000000  0.60579255  1
  C  C8  1  0.10231548  0.00000000  0.70728635  1
  C  C9  1  0.19663222  0.50000000  0.39400504  1
  Hf  Hf10  1  0.49949330  0.50000000  0.49762186  1
  Hf  Hf11  1  0.80062868  0.00000000  0.60253202  1
  Nb  Nb12  1  0.40267212  0.00000000  0.81093747  1
  Nb  Nb13  1  0.09871077  0.50000000  0.71149663  1
  Ta  Ta14  1  0.19935565  0.00000000  0.39189162  1
  Ta  Ta15  1  0.89934836  0.50000000  0.28877461  1
  Ti  Ti16  1  0.30307146  0.50000000  0.09823652  1
  Ti  Ti17  1  0.60334497  0.00000000  0.19547236  1
  V  V18  1  0.69711099  0.50000000  0.90524326  1
  V  V19  1  0.99236542  0.00000000  0.99806989  1
