# generated using pymatgen
data_HfTaTiNbMoC5
_symmetry_space_group_name_H-M   'P 1'
_cell_length_a   7.04900000
_cell_length_b   4.45200000
_cell_length_c   7.04800000
_cell_angle_alpha   90.00000000
_cell_angle_beta   90.00000000
_cell_angle_gamma   90.00000000
_symmetry_Int_Tables_number   1
_chemical_formula_structural   HfTaTiNbMoC5
_chemical_formula_sum   'Hf2 Ta2 Ti2 Nb2 Mo2 C10'
_cell_volume   221.18137910
_cell_formula_units_Z   2
loop_
 _symmetry_equiv_pos_site_id
 _symmetry_equiv_pos_as_xyz
  1  'x, y, z'
loop_
 _atom_site_type_symbol
 _atom_site_label
 _atom_site_symmetry_multiplicity
 _atom_site_fract_x
 _atom_site_fract_y
 _atom_site_fract_z
 _atom_site_occupancy
  C  C0  1  0.69902150  0.00000000  0.89727956  1
  C  C1  1  0.49541778  0.00000000  0.50449662  1
  C  C2  1  0.59536349  0.50000000  0.20084850  1
  C  C3  1  0.90664287  0.00000000  0.30130333  1
  C  C4  1  0.00013795  0.50000000  0.99395627  1
  C  C5  1  0.29365595  0.00000000  0.10171963  1
  C  C6  1  0.40307628  0.50000000  0.79771511  1
  C  C7  1  0.79720044  0.50000000  0.60357308  1
  C  C8  1  0.10375223  0.00000000  0.69874376  1
  C  C9  1  0.20517696  0.50000000  0.40110585  1
  Hf  Hf10  1  0.59427480  0.00000000  0.20136338  1
  Hf  Hf11  1  0.90135080  0.50000000  0.29931625  1
  Mo  Mo12  1  0.29490179  0.50000000  0.10882649  1
  Mo  Mo13  1  0.00377508  0.00000000  0.00745068  1
  Nb  Nb14  1  0.80667435  0.00000000  0.60001940  1
  Nb  Nb15  1  0.10798098  0.50000000  0.69433197  1
  Ta  Ta16  1  0.39512991  0.00000000  0.79541912  1
  Ta  Ta17  1  0.69563216  0.50000000  0.89773737  1
  Ti  Ti18  1  0.49852017  0.50000000  0.49708345  1
  Ti  Ti19  1  0.20231450  0.00000000  0.39771018  1
