# generated using pymatgen
data_HfTaTiNbVC5
_symmetry_space_group_name_H-M   'P 1'
_cell_length_a   7.02100000
_cell_length_b   4.46300000
_cell_length_c   7.02400000
_cell_angle_alpha   90.00000000
_cell_angle_beta   90.00000000
_cell_angle_gamma   90.00000000
_symmetry_Int_Tables_number   1
_chemical_formula_structural   HfTaTiNbVC5
_chemical_formula_sum   'Hf2 Ta2 Ti2 Nb2 V2 C10'
_cell_volume   220.09509435
_cell_formula_units_Z   2
loop_
 _symmetry_equiv_pos_site_id
 _symmetry_equiv_pos_as_xyz
  1  'x, y, z'
loop_
 _atom_site_type_symbol
 _atom_site_label
 _atom_site_symmetry_multiplicity
 _atom_site_fract_x
 _atom_site_fract_y
 _atom_site_fract_z
 _atom_site_occupancy
  C  C0  1  0.70682378  0.00000000  0.90929311  1
  C  C1  1  0.49581506  0.00000000  0.49670151  1
  C  C2  1  0.60047611  0.50000000  0.18715415  1
  C  C3  1  0.89822627  0.00000000  0.28867484  1
  C  C4  1  0.99718335  0.50000000  0.00039376  1
  C  C5  1  0.29761082  0.00000000  0.10056225  1
  C  C6  1  0.40458094  0.50000000  0.81012627  1
  C  C7  1  0.80458616  0.50000000  0.60563334  1
  C  C8  1  0.10216683  0.00000000  0.70722091  1
  C  C9  1  0.19671969  0.50000000  0.39393004  1
  Hf  Hf10  1  0.49946364  0.50000000  0.49774365  1
  Hf  Hf11  1  0.80057767  0.00000000  0.60250609  1
  Nb  Nb12  1  0.40232871  0.00000000  0.81122294  1
  Nb  Nb13  1  0.09821973  0.50000000  0.71177128  1
  Ta  Ta14  1  0.19971444  0.00000000  0.39138195  1
  Ta  Ta15  1  0.89978743  0.50000000  0.28849841  1
  Ti  Ti16  1  0.30356377  0.50000000  0.09814439  1
  Ti  Ti17  1  0.60381185  0.00000000  0.19548690  1
  V  V18  1  0.69668080  0.50000000  0.90560243  1
  V  V19  1  0.99166294  0.00000000  0.99795178  1
