# generated using pymatgen
data_HfTaTiNbVC5
_symmetry_space_group_name_H-M   'P 1'
_cell_length_a   7.01600000
_cell_length_b   4.45800000
_cell_length_c   7.01900000
_cell_angle_alpha   90.00000000
_cell_angle_beta   90.00000000
_cell_angle_gamma   90.00000000
_symmetry_Int_Tables_number   1
_chemical_formula_structural   HfTaTiNbVC5
_chemical_formula_sum   'Hf2 Ta2 Ti2 Nb2 V2 C10'
_cell_volume   219.53556523
_cell_formula_units_Z   2
loop_
 _symmetry_equiv_pos_site_id
 _symmetry_equiv_pos_as_xyz
  1  'x, y, z'
loop_
 _atom_site_type_symbol
 _atom_site_label
 _atom_site_symmetry_multiplicity
 _atom_site_fract_x
 _atom_site_fract_y
 _atom_site_fract_z
 _atom_site_occupancy
  C  C0  1  0.70685718  0.00000000  0.90930788  1
  C  C1  1  0.49583469  0.00000000  0.49668832  1
  C  C2  1  0.60040694  0.50000000  0.18713564  1
  C  C3  1  0.89816229  0.00000000  0.28866488  1
  C  C4  1  0.99720807  0.50000000  0.00039197  1
  C  C5  1  0.29757777  0.00000000  0.10054407  1
  C  C6  1  0.40464353  0.50000000  0.81011635  1
  C  C7  1  0.80456385  0.50000000  0.60566493  1
  C  C8  1  0.10218553  0.00000000  0.70722816  1
  C  C9  1  0.19671070  0.50000000  0.39394904  1
  Hf  Hf10  1  0.49946879  0.50000000  0.49773087  1
  Hf  Hf11  1  0.80057976  0.00000000  0.60250532  1
  Nb  Nb12  1  0.40239447  0.00000000  0.81116286  1
  Nb  Nb13  1  0.09830785  0.50000000  0.71171326  1
  Ta  Ta14  1  0.19964936  0.00000000  0.39146967  1
  Ta  Ta15  1  0.89971623  0.50000000  0.28856044  1
  Ti  Ti16  1  0.30350466  0.50000000  0.09817015  1
  Ti  Ti17  1  0.60372267  0.00000000  0.19549045  1
  V  V18  1  0.69672827  0.50000000  0.90553070  1
  V  V19  1  0.99177739  0.00000000  0.99797508  1
