# generated using pymatgen
data_HfTaTiNbMoC5
_symmetry_space_group_name_H-M   'P 1'
_cell_length_a   7.05400000
_cell_length_b   4.45700000
_cell_length_c   7.05300000
_cell_angle_alpha   90.00000000
_cell_angle_beta   90.00000000
_cell_angle_gamma   90.00000000
_symmetry_Int_Tables_number   1
_chemical_formula_structural   HfTaTiNbMoC5
_chemical_formula_sum   'Hf2 Ta2 Ti2 Nb2 Mo2 C10'
_cell_volume   221.74404893
_cell_formula_units_Z   2
loop_
 _symmetry_equiv_pos_site_id
 _symmetry_equiv_pos_as_xyz
  1  'x, y, z'
loop_
 _atom_site_type_symbol
 _atom_site_label
 _atom_site_symmetry_multiplicity
 _atom_site_fract_x
 _atom_site_fract_y
 _atom_site_fract_z
 _atom_site_occupancy
  C  C0  1  0.69900092  0.00000000  0.89725560  1
  C  C1  1  0.49543079  0.00000000  0.50451877  1
  C  C2  1  0.59535653  0.50000000  0.20080948  1
  C  C3  1  0.90662551  0.00000000  0.30129338  1
  C  C4  1  0.00013134  0.50000000  0.99397125  1
  C  C5  1  0.29364197  0.00000000  0.10168419  1
  C  C6  1  0.40308491  0.50000000  0.79773348  1
  C  C7  1  0.79723311  0.50000000  0.60360362  1
  C  C8  1  0.10377416  0.00000000  0.69877095  1
  C  C9  1  0.20515226  0.50000000  0.40109920  1
  Hf  Hf10  1  0.59423184  0.00000000  0.20134714  1
  Hf  Hf11  1  0.90132325  0.50000000  0.29932412  1
  Mo  Mo12  1  0.29486999  0.50000000  0.10891196  1
  Mo  Mo13  1  0.00382551  0.00000000  0.00756700  1
  Nb  Nb14  1  0.80673972  0.00000000  0.60002634  1
  Nb  Nb15  1  0.10802705  0.50000000  0.69431496  1
  Ta  Ta16  1  0.39511653  0.00000000  0.79532623  1
  Ta  Ta17  1  0.69561626  0.50000000  0.89769540  1
  Ti  Ti18  1  0.49851421  0.50000000  0.49705742  1
  Ti  Ti19  1  0.20230416  0.00000000  0.39768954  1
