# generated using pymatgen
data_HfTaTiNbVC5
_symmetry_space_group_name_H-M   'P 1'
_cell_length_a   7.01100000
_cell_length_b   4.45300000
_cell_length_c   7.01400000
_cell_angle_alpha   90.00000000
_cell_angle_beta   90.00000000
_cell_angle_gamma   90.00000000
_symmetry_Int_Tables_number   1
_chemical_formula_structural   HfTaTiNbVC5
_chemical_formula_sum   'Hf2 Ta2 Ti2 Nb2 V2 C10'
_cell_volume   218.97696076
_cell_formula_units_Z   2
loop_
 _symmetry_equiv_pos_site_id
 _symmetry_equiv_pos_as_xyz
  1  'x, y, z'
loop_
 _atom_site_type_symbol
 _atom_site_label
 _atom_site_symmetry_multiplicity
 _atom_site_fract_x
 _atom_site_fract_y
 _atom_site_fract_z
 _atom_site_occupancy
  C  C0  1  0.70690446  0.00000000  0.90929012  1
  C  C1  1  0.49584286  0.00000000  0.49667750  1
  C  C2  1  0.60032384  0.50000000  0.18710703  1
  C  C3  1  0.89811664  0.00000000  0.28868801  1
  C  C4  1  0.99720990  0.50000000  0.00038143  1
  C  C5  1  0.29752110  0.00000000  0.10052321  1
  C  C6  1  0.40467484  0.50000000  0.81012570  1
  C  C7  1  0.80454411  0.50000000  0.60569802  1
  C  C8  1  0.10222182  0.00000000  0.70724353  1
  C  C9  1  0.19669986  0.50000000  0.39395784  1
  Hf  Hf10  1  0.49947799  0.50000000  0.49769740  1
  Hf  Hf11  1  0.80058898  0.00000000  0.60249358  1
  Nb  Nb12  1  0.40246565  0.00000000  0.81113078  1
  Nb  Nb13  1  0.09840044  0.50000000  0.71166856  1
  Ta  Ta14  1  0.19958351  0.00000000  0.39158698  1
  Ta  Ta15  1  0.89962418  0.50000000  0.28859886  1
  Ti  Ti16  1  0.30337074  0.50000000  0.09819118  1
  Ti  Ti17  1  0.60364676  0.00000000  0.19549982  1
  V  V18  1  0.69688888  0.50000000  0.90546662  1
  V  V19  1  0.99189343  0.00000000  0.99797383  1
