# generated using pymatgen
data_HfTaTiNbMoC5
_symmetry_space_group_name_H-M   'P 1'
_cell_length_a   7.06400000
_cell_length_b   4.46700000
_cell_length_c   7.06300000
_cell_angle_alpha   90.00000000
_cell_angle_beta   90.00000000
_cell_angle_gamma   90.00000000
_symmetry_Int_Tables_number   1
_chemical_formula_structural   HfTaTiNbMoC5
_chemical_formula_sum   'Hf2 Ta2 Ti2 Nb2 Mo2 C10'
_cell_volume   222.87217394
_cell_formula_units_Z   2
loop_
 _symmetry_equiv_pos_site_id
 _symmetry_equiv_pos_as_xyz
  1  'x, y, z'
loop_
 _atom_site_type_symbol
 _atom_site_label
 _atom_site_symmetry_multiplicity
 _atom_site_fract_x
 _atom_site_fract_y
 _atom_site_fract_z
 _atom_site_occupancy
  C  C0  1  0.69895687  0.00000000  0.89720871  1
  C  C1  1  0.49543794  0.00000000  0.50454995  1
  C  C2  1  0.59536108  0.50000000  0.20072178  1
  C  C3  1  0.90660164  0.00000000  0.30129742  1
  C  C4  1  0.00013179  0.50000000  0.99400299  1
  C  C5  1  0.29362342  0.00000000  0.10162751  1
  C  C6  1  0.40311264  0.50000000  0.79774116  1
  C  C7  1  0.79728962  0.50000000  0.60366525  1
  C  C8  1  0.10381609  0.00000000  0.69883386  1
  C  C9  1  0.20509252  0.50000000  0.40109173  1
  Hf  Hf10  1  0.59416493  0.00000000  0.20129483  1
  Hf  Hf11  1  0.90127828  0.50000000  0.29935257  1
  Mo  Mo12  1  0.29478130  0.50000000  0.10907713  1
  Mo  Mo13  1  0.00397777  0.00000000  0.00777656  1
  Nb  Nb14  1  0.80686016  0.00000000  0.60008275  1
  Nb  Nb15  1  0.10813553  0.50000000  0.69429465  1
  Ta  Ta16  1  0.39507281  0.00000000  0.79513890  1
  Ta  Ta17  1  0.69553618  0.50000000  0.89759802  1
  Ti  Ti18  1  0.49849049  0.50000000  0.49698519  1
  Ti  Ti19  1  0.20227897  0.00000000  0.39765902  1
