# generated using pymatgen
data_HfTaTiNbMoC5
_symmetry_space_group_name_H-M   'P 1'
_cell_length_a   7.06900000
_cell_length_b   4.47200000
_cell_length_c   7.06800000
_cell_angle_alpha   90.00000000
_cell_angle_beta   90.00000000
_cell_angle_gamma   90.00000000
_symmetry_Int_Tables_number   1
_chemical_formula_structural   HfTaTiNbMoC5
_chemical_formula_sum   'Hf2 Ta2 Ti2 Nb2 Mo2 C10'
_cell_volume   223.43763062
_cell_formula_units_Z   2
loop_
 _symmetry_equiv_pos_site_id
 _symmetry_equiv_pos_as_xyz
  1  'x, y, z'
loop_
 _atom_site_type_symbol
 _atom_site_label
 _atom_site_symmetry_multiplicity
 _atom_site_fract_x
 _atom_site_fract_y
 _atom_site_fract_z
 _atom_site_occupancy
  C  C0  1  0.69893509  0.00000000  0.89718592  1
  C  C1  1  0.49544337  0.00000000  0.50456513  1
  C  C2  1  0.59536173  0.50000000  0.20068218  1
  C  C3  1  0.90658915  0.00000000  0.30129841  1
  C  C4  1  0.00013220  0.50000000  0.99402090  1
  C  C5  1  0.29361655  0.00000000  0.10159292  1
  C  C6  1  0.40312539  0.50000000  0.79774699  1
  C  C7  1  0.79731857  0.50000000  0.60370119  1
  C  C8  1  0.10383582  0.00000000  0.69886264  1
  C  C9  1  0.20506491  0.50000000  0.40108585  1
  Hf  Hf10  1  0.59413065  0.00000000  0.20127005  1
  Hf  Hf11  1  0.90125503  0.50000000  0.29936875  1
  Mo  Mo12  1  0.29473866  0.50000000  0.10915591  1
  Mo  Mo13  1  0.00404870  0.00000000  0.00789180  1
  Nb  Nb14  1  0.80692549  0.00000000  0.60010980  1
  Nb  Nb15  1  0.10818814  0.50000000  0.69428217  1
  Ta  Ta16  1  0.39504896  0.00000000  0.79504020  1
  Ta  Ta17  1  0.69550177  0.50000000  0.89755386  1
  Ti  Ti18  1  0.49847637  0.50000000  0.49695099  1
  Ti  Ti19  1  0.20226346  0.00000000  0.39763430  1
