# generated using pymatgen
data_HfTaTiNbWC5
_symmetry_space_group_name_H-M   'P 1'
_cell_length_a   7.04600000
_cell_length_b   4.44200000
_cell_length_c   7.04200000
_cell_angle_alpha   90.00000000
_cell_angle_beta   90.00000000
_cell_angle_gamma   90.00000000
_symmetry_Int_Tables_number   1
_chemical_formula_structural   HfTaTiNbWC5
_chemical_formula_sum   'Hf2 Ta2 Ti2 Nb2 W2 C10'
_cell_volume   220.40285394
_cell_formula_units_Z   2
loop_
 _symmetry_equiv_pos_site_id
 _symmetry_equiv_pos_as_xyz
  1  'x, y, z'
loop_
 _atom_site_type_symbol
 _atom_site_label
 _atom_site_symmetry_multiplicity
 _atom_site_fract_x
 _atom_site_fract_y
 _atom_site_fract_z
 _atom_site_occupancy
  C  C0  1  0.70484888  0.00000000  0.90413563  1
  C  C1  1  0.49722950  0.00000000  0.49265460  1
  C  C2  1  0.59876062  0.50000000  0.19710855  1
  C  C3  1  0.90061933  0.00000000  0.29790580  1
  C  C4  1  0.00307229  0.50000000  0.00786905  1
  C  C5  1  0.30180050  0.00000000  0.10805205  1
  C  C6  1  0.40358721  0.50000000  0.80283688  1
  C  C7  1  0.79726780  0.50000000  0.59872097  1
  C  C8  1  0.09607888  0.00000000  0.69963021  1
  C  C9  1  0.19517207  0.50000000  0.39223643  1
  Hf  Hf10  1  0.40159830  0.00000000  0.80509243  1
  Hf  Hf11  1  0.10072178  0.50000000  0.69842814  1
  Nb  Nb12  1  0.50240652  0.50000000  0.49262713  1
  Nb  Nb13  1  0.79625033  0.00000000  0.59147146  1
  Ta  Ta14  1  0.69960118  0.50000000  0.90452743  1
  Ta  Ta15  1  0.00211703  0.00000000  0.00531280  1
  Ti  Ti16  1  0.30547992  0.50000000  0.10583846  1
  Ti  Ti17  1  0.59675794  0.00000000  0.20064811  1
  W  W18  1  0.20951904  0.00000000  0.39855701  1
  W  W19  1  0.88711090  0.50000000  0.29634686  1
