# generated using pymatgen
data_HfTaTiNbWC5
_symmetry_space_group_name_H-M   'P 1'
_cell_length_a   7.05600000
_cell_length_b   4.45200000
_cell_length_c   7.05200000
_cell_angle_alpha   90.00000000
_cell_angle_beta   90.00000000
_cell_angle_gamma   90.00000000
_symmetry_Int_Tables_number   1
_chemical_formula_structural   HfTaTiNbWC5
_chemical_formula_sum   'Hf2 Ta2 Ti2 Nb2 W2 C10'
_cell_volume   221.52667622
_cell_formula_units_Z   2
loop_
 _symmetry_equiv_pos_site_id
 _symmetry_equiv_pos_as_xyz
  1  'x, y, z'
loop_
 _atom_site_type_symbol
 _atom_site_label
 _atom_site_symmetry_multiplicity
 _atom_site_fract_x
 _atom_site_fract_y
 _atom_site_fract_z
 _atom_site_occupancy
  C  C0  1  0.70484939  0.00000000  0.90411179  1
  C  C1  1  0.49730793  0.00000000  0.49275390  1
  C  C2  1  0.59871767  0.50000000  0.19714854  1
  C  C3  1  0.90079557  0.00000000  0.29795488  1
  C  C4  1  0.00289492  0.50000000  0.00783614  1
  C  C5  1  0.30165973  0.00000000  0.10807931  1
  C  C6  1  0.40363671  0.50000000  0.80277247  1
  C  C7  1  0.79732838  0.50000000  0.59869609  1
  C  C8  1  0.09607593  0.00000000  0.69976561  1
  C  C9  1  0.19523796  0.50000000  0.39220856  1
  Hf  Hf10  1  0.40158794  0.00000000  0.80514179  1
  Hf  Hf11  1  0.10068943  0.50000000  0.69839569  1
  Nb  Nb12  1  0.50256732  0.50000000  0.49256382  1
  Nb  Nb13  1  0.79612700  0.00000000  0.59132150  1
  Ta  Ta14  1  0.69951767  0.50000000  0.90448635  1
  Ta  Ta15  1  0.00200103  0.00000000  0.00543286  1
  Ti  Ti16  1  0.30553724  0.50000000  0.10601675  1
  Ti  Ti17  1  0.59665396  0.00000000  0.20056711  1
  W  W18  1  0.20997765  0.00000000  0.39856375  1
  W  W19  1  0.88683661  0.50000000  0.29618309  1
