# generated using pymatgen
data_HfTaTiNbMoC5
_symmetry_space_group_name_H-M   'P 1'
_cell_length_a   7.07900000
_cell_length_b   4.48200000
_cell_length_c   7.07800000
_cell_angle_alpha   90.00000000
_cell_angle_beta   90.00000000
_cell_angle_gamma   90.00000000
_symmetry_Int_Tables_number   1
_chemical_formula_structural   HfTaTiNbMoC5
_chemical_formula_sum   'Hf2 Ta2 Ti2 Nb2 Mo2 C10'
_cell_volume   224.57133608
_cell_formula_units_Z   2
loop_
 _symmetry_equiv_pos_site_id
 _symmetry_equiv_pos_as_xyz
  1  'x, y, z'
loop_
 _atom_site_type_symbol
 _atom_site_label
 _atom_site_symmetry_multiplicity
 _atom_site_fract_x
 _atom_site_fract_y
 _atom_site_fract_z
 _atom_site_occupancy
  C  C0  1  0.69894591  0.00000000  0.89704846  1
  C  C1  1  0.49542186  0.00000000  0.50452681  1
  C  C2  1  0.59535396  0.50000000  0.20050235  1
  C  C3  1  0.90654257  0.00000000  0.30132551  1
  C  C4  1  0.00015079  0.50000000  0.99414225  1
  C  C5  1  0.29363010  0.00000000  0.10147577  1
  C  C6  1  0.40315444  0.50000000  0.79776773  1
  C  C7  1  0.79736936  0.50000000  0.60376997  1
  C  C8  1  0.10384556  0.00000000  0.69906627  1
  C  C9  1  0.20494927  0.50000000  0.40112563  1
  Hf  Hf10  1  0.59399629  0.00000000  0.20111744  1
  Hf  Hf11  1  0.90110942  0.50000000  0.29945621  1
  Mo  Mo12  1  0.29452409  0.50000000  0.10961999  1
  Mo  Mo13  1  0.00431828  0.00000000  0.00851526  1
  Nb  Nb14  1  0.80710910  0.00000000  0.60004341  1
  Nb  Nb15  1  0.10835823  0.50000000  0.69415118  1
  Ta  Ta16  1  0.39504691  0.00000000  0.79463830  1
  Ta  Ta17  1  0.69547091  0.50000000  0.89739128  1
  Ti  Ti18  1  0.49846691  0.50000000  0.49675385  1
  Ti  Ti19  1  0.20223604  0.00000000  0.39756236  1
