# generated using pymatgen
data_HfTaTiNbMoC5
_symmetry_space_group_name_H-M   'P 1'
_cell_length_a   7.07400000
_cell_length_b   4.47700000
_cell_length_c   7.07300000
_cell_angle_alpha   90.00000000
_cell_angle_beta   90.00000000
_cell_angle_gamma   90.00000000
_symmetry_Int_Tables_number   1
_chemical_formula_structural   HfTaTiNbMoC5
_chemical_formula_sum   'Hf2 Ta2 Ti2 Nb2 Mo2 C10'
_cell_volume   224.00401775
_cell_formula_units_Z   2
loop_
 _symmetry_equiv_pos_site_id
 _symmetry_equiv_pos_as_xyz
  1  'x, y, z'
loop_
 _atom_site_type_symbol
 _atom_site_label
 _atom_site_symmetry_multiplicity
 _atom_site_fract_x
 _atom_site_fract_y
 _atom_site_fract_z
 _atom_site_occupancy
  C  C0  1  0.69894065  0.00000000  0.89712321  1
  C  C1  1  0.49543004  0.00000000  0.50455540  1
  C  C2  1  0.59536046  0.50000000  0.20060492  1
  C  C3  1  0.90656463  0.00000000  0.30130659  1
  C  C4  1  0.00014575  0.50000000  0.99407360  1
  C  C5  1  0.29362488  0.00000000  0.10154009  1
  C  C6  1  0.40314391  0.50000000  0.79776546  1
  C  C7  1  0.79734738  0.50000000  0.60373484  1
  C  C8  1  0.10384179  0.00000000  0.69895003  1
  C  C9  1  0.20500916  0.50000000  0.40110137  1
  Hf  Hf10  1  0.59407302  0.00000000  0.20120608  1
  Hf  Hf11  1  0.90119281  0.50000000  0.29940428  1
  Mo  Mo12  1  0.29465125  0.50000000  0.10934283  1
  Mo  Mo13  1  0.00417357  0.00000000  0.00814621  1
  Nb  Nb14  1  0.80700196  0.00000000  0.60008870  1
  Nb  Nb15  1  0.10825843  0.50000000  0.69422855  1
  Ta  Ta16  1  0.39503762  0.00000000  0.79487168  1
  Ta  Ta17  1  0.69549409  0.50000000  0.89748549  1
  Ti  Ti18  1  0.49846934  0.50000000  0.49686698  1
  Ti  Ti19  1  0.20223929  0.00000000  0.39760369  1
