# generated using pymatgen
data_Ti4MoC5
_symmetry_space_group_name_H-M   'P 1'
_cell_length_a   6.84850400
_cell_length_b   6.85221012
_cell_length_c   8.67721963
_cell_angle_alpha   89.98923153
_cell_angle_beta   90.02810162
_cell_angle_gamma   89.98657027
_symmetry_Int_Tables_number   1
_chemical_formula_structural   Ti4MoC5
_chemical_formula_sum   'Ti16 Mo4 C20'
_cell_volume   407.19918834
_cell_formula_units_Z   4
loop_
 _symmetry_equiv_pos_site_id
 _symmetry_equiv_pos_as_xyz
  1  'x, y, z'
loop_
 _atom_site_type_symbol
 _atom_site_label
 _atom_site_symmetry_multiplicity
 _atom_site_fract_x
 _atom_site_fract_y
 _atom_site_fract_z
 _atom_site_occupancy
  C  C0  1  0.40104870  0.19972199  0.74965519  1
  C  C1  1  0.49956993  0.50059831  0.99953216  1
  C  C2  1  0.40016621  0.20051519  0.25082027  1
  C  C3  1  0.50057128  0.50174444  0.50009942  1
  C  C4  1  0.60034353  0.79998774  0.75012544  1
  C  C5  1  0.69898399  0.09862448  0.99971716  1
  C  C6  1  0.79915336  0.39901105  0.75109084  1
  C  C7  1  0.90043489  0.70053051  0.99953791  1
  C  C8  1  0.10056410  0.30060813  0.99928905  1
  C  C9  1  0.60095614  0.79978359  0.25052375  1
  C  C10  1  0.69896519  0.09984703  0.49975514  1
  C  C11  1  0.80014410  0.39887053  0.24988966  1
  C  C12  1  0.90066228  0.70034827  0.49799064  1
  C  C13  1  0.99976717  0.00274264  0.75142559  1
  C  C14  1  0.10130419  0.29908962  0.50023733  1
  C  C15  1  0.19862714  0.59872229  0.74985229  1
  C  C16  1  0.29984952  0.89968758  0.00026242  1
  C  C17  1  0.99911227  0.00157383  0.25037456  1
  C  C18  1  0.20002311  0.59939736  0.25049647  1
  C  C19  1  0.30003543  0.89838340  0.49932827  1
  Ti  Ti20  1  0.20088807  0.59929622  0.00066581  1
  Ti  Ti21  1  0.30042946  0.89952987  0.24805901  1
  Ti  Ti22  1  0.20390213  0.59744883  0.49813899  1
  Ti  Ti23  1  0.39981007  0.19961221  0.00130638  1
  Ti  Ti24  1  0.50014202  0.49902417  0.24873993  1
  Ti  Ti25  1  0.59926806  0.80027502  0.00104124  1
  Ti  Ti26  1  0.69958646  0.10062753  0.24935676  1
  Ti  Ti27  1  0.89983842  0.69998914  0.24751094  1
  Ti  Ti28  1  0.40004871  0.19922916  0.49868822  1
  Ti  Ti29  1  0.49813762  0.49673660  0.75137611  1
  Ti  Ti30  1  0.59734302  0.80212372  0.49755924  1
  Ti  Ti31  1  0.70149952  0.10317962  0.75170240  1
  Ti  Ti32  1  0.79915633  0.39995861  0.00161793  1
  Ti  Ti33  1  -0.00000608  0.00119069  0.00137786  1
  Ti  Ti34  1  0.10055811  0.30055301  0.24939517  1
  Ti  Ti35  1  0.10027581  0.30129091  0.75182596  1
  Mo  Mo36  1  0.30412090  0.89875155  0.75202567  1
  Mo  Mo37  1  0.89374661  0.70086665  0.75199915  1
  Mo  Mo38  1  0.80142676  0.40585875  0.49862768  1
  Mo  Mo39  1  0.99954549  0.99466981  0.49898201  1
