# generated using pymatgen
data_Ti9MoC10
_symmetry_space_group_name_H-M   'P 1'
_cell_length_a   6.85161414
_cell_length_b   6.85191208
_cell_length_c   8.66131910
_cell_angle_alpha   90.00000000
_cell_angle_beta   90.00000000
_cell_angle_gamma   89.98056066
_symmetry_Int_Tables_number   1
_chemical_formula_structural   Ti9MoC10
_chemical_formula_sum   'Ti18 Mo2 C20'
_cell_volume   406.61995982
_cell_formula_units_Z   2
loop_
 _symmetry_equiv_pos_site_id
 _symmetry_equiv_pos_as_xyz
  1  'x, y, z'
loop_
 _atom_site_type_symbol
 _atom_site_label
 _atom_site_symmetry_multiplicity
 _atom_site_fract_x
 _atom_site_fract_y
 _atom_site_fract_z
 _atom_site_occupancy
  C  C0  1  0.40000000  0.20000000  0.75000000  1
  C  C1  1  0.49988516  0.50034803  0.99959092  1
  C  C2  1  0.40000000  0.20000000  0.25000000  1
  C  C3  1  0.49988516  0.50034803  0.50040908  1
  C  C4  1  0.60083728  0.79954682  0.75000000  1
  C  C5  1  0.69953522  0.10007533  0.99967621  1
  C  C6  1  0.79926517  0.39951030  0.75000000  1
  C  C7  1  0.90000000  0.70000000  0.99957542  1
  C  C8  1  0.10046478  0.29992467  0.99967621  1
  C  C9  1  0.60047852  0.80033819  0.25000000  1
  C  C10  1  0.69953522  0.10007533  0.50032379  1
  C  C11  1  0.80035907  0.39988478  0.25000000  1
  C  C12  1  0.90000000  0.70000000  0.50042458  1
  C  C13  1  0.00073483  0.00048970  0.75000000  1
  C  C14  1  0.10046478  0.29992467  0.50032379  1
  C  C15  1  0.19916272  0.60045318  0.75000000  1
  C  C16  1  0.30011484  0.89965197  0.99959092  1
  C  C17  1  0.99964093  0.00011522  0.25000000  1
  C  C18  1  0.19952148  0.59966181  0.25000000  1
  C  C19  1  0.30011484  0.89965197  0.50040908  1
  Ti  Ti20  1  0.19890304  0.60018230  0.00113543  1
  Ti  Ti21  1  0.30001511  0.90025158  0.25000000  1
  Ti  Ti22  1  0.19890304  0.60018230  0.49886457  1
  Ti  Ti23  1  0.40000000  0.20000000  0.00178257  1
  Ti  Ti24  1  0.49998489  0.49974842  0.25000000  1
  Ti  Ti25  1  0.60109696  0.79981770  0.00113543  1
  Ti  Ti26  1  0.70080385  0.09962302  0.25000000  1
  Ti  Ti27  1  0.90000000  0.70000000  0.25000000  1
  Ti  Ti28  1  0.40000000  0.20000000  0.49821743  1
  Ti  Ti29  1  0.60109696  0.79981770  0.49886457  1
  Ti  Ti30  1  0.70275709  0.09757729  0.75000000  1
  Ti  Ti31  1  0.80009562  0.39944047  0.00138479  1
  Ti  Ti32  1  0.90000000  0.70000000  0.75000000  1
  Ti  Ti33  1  0.99990438  0.00055953  0.00138479  1
  Ti  Ti34  1  0.09919615  0.30037698  0.25000000  1
  Ti  Ti35  1  0.80009562  0.39944047  0.49861521  1
  Ti  Ti36  1  0.99990438  0.00055953  0.49861521  1
  Ti  Ti37  1  0.09724291  0.30242271  0.75000000  1
  Mo  Mo38  1  0.30014230  0.90486882  0.75000000  1
  Mo  Mo39  1  0.49985770  0.49513118  0.75000000  1
