# generated using pymatgen
data_Ti9WC10
_symmetry_space_group_name_H-M   'P 1'
_cell_length_a   6.85245465
_cell_length_b   6.85299886
_cell_length_c   8.66220968
_cell_angle_alpha   90.00000000
_cell_angle_beta   90.00000000
_cell_angle_gamma   89.98665225
_symmetry_Int_Tables_number   1
_chemical_formula_structural   Ti9WC10
_chemical_formula_sum   'Ti18 W2 C20'
_cell_volume   406.77617641
_cell_formula_units_Z   2
loop_
 _symmetry_equiv_pos_site_id
 _symmetry_equiv_pos_as_xyz
  1  'x, y, z'
loop_
 _atom_site_type_symbol
 _atom_site_label
 _atom_site_symmetry_multiplicity
 _atom_site_fract_x
 _atom_site_fract_y
 _atom_site_fract_z
 _atom_site_occupancy
  C  C0  1  0.40000000  0.20000000  0.75000000  1
  C  C1  1  0.49992468  0.50013495  0.99879302  1
  C  C2  1  0.40000000  0.20000000  0.25000000  1
  C  C3  1  0.49992468  0.50013495  0.50120698  1
  C  C4  1  0.59979896  0.79904216  0.75000000  1
  C  C5  1  0.69990430  0.09976077  0.99988312  1
  C  C6  1  0.79824148  0.39979476  0.75000000  1
  C  C7  1  0.90000000  0.70000000  0.99983756  1
  C  C8  1  0.10009570  0.30023923  0.99988312  1
  C  C9  1  0.60021535  0.80008981  0.25000000  1
  C  C10  1  0.69990430  0.09976077  0.50011688  1
  C  C11  1  0.80008962  0.39990994  0.25000000  1
  C  C12  1  0.90000000  0.70000000  0.50016244  1
  C  C13  1  0.00175852  0.00020524  0.75000000  1
  C  C14  1  0.10009570  0.30023923  0.50011688  1
  C  C15  1  0.20020104  0.60095784  0.75000000  1
  C  C16  1  0.30007532  0.89986505  0.99879302  1
  C  C17  1  0.99991038  0.00009006  0.25000000  1
  C  C18  1  0.19978465  0.59991019  0.25000000  1
  C  C19  1  0.30007532  0.89986505  0.50120698  1
  Ti  Ti20  1  0.19836481  0.59997171  0.00169969  1
  Ti  Ti21  1  0.29997632  0.90009573  0.25000000  1
  Ti  Ti22  1  0.19836481  0.59997171  0.49830031  1
  Ti  Ti23  1  0.40000000  0.20000000  0.00234823  1
  Ti  Ti24  1  0.50002368  0.49990427  0.25000000  1
  Ti  Ti25  1  0.60163519  0.80002829  0.00169969  1
  Ti  Ti26  1  0.70057110  0.09982601  0.25000000  1
  Ti  Ti27  1  0.90000000  0.70000000  0.25000000  1
  Ti  Ti28  1  0.40000000  0.20000000  0.49765177  1
  Ti  Ti29  1  0.60163519  0.80002829  0.49830031  1
  Ti  Ti30  1  0.70320933  0.09700419  0.75000000  1
  Ti  Ti31  1  0.80061460  0.39929514  0.00187824  1
  Ti  Ti32  1  0.90000000  0.70000000  0.75000000  1
  Ti  Ti33  1  0.99938540  0.00070486  0.00187824  1
  Ti  Ti34  1  0.09942890  0.30017399  0.25000000  1
  Ti  Ti35  1  0.80061460  0.39929514  0.49812176  1
  Ti  Ti36  1  0.99938540  0.00070486  0.49812176  1
  Ti  Ti37  1  0.09679067  0.30299581  0.75000000  1
  W  W38  1  0.29907459  0.90491220  0.75000000  1
  W  W39  1  0.50092541  0.49508780  0.75000000  1
