# generated using pymatgen
data_Ti9VC10
_symmetry_space_group_name_H-M   'P 1'
_cell_length_a   6.82154497
_cell_length_b   6.82298867
_cell_length_c   8.63135397
_cell_angle_alpha   90.00000000
_cell_angle_beta   90.00000000
_cell_angle_gamma   90.00463733
_symmetry_Int_Tables_number   1
_chemical_formula_structural   Ti9VC10
_chemical_formula_sum   'Ti18 V2 C20'
_cell_volume   401.73190357
_cell_formula_units_Z   2
loop_
 _symmetry_equiv_pos_site_id
 _symmetry_equiv_pos_as_xyz
  1  'x, y, z'
loop_
 _atom_site_type_symbol
 _atom_site_label
 _atom_site_symmetry_multiplicity
 _atom_site_fract_x
 _atom_site_fract_y
 _atom_site_fract_z
 _atom_site_occupancy
  C  C0  1  0.40000000  0.20000000  0.75000000  1
  C  C1  1  0.49967914  0.50024096  0.99544212  1
  C  C2  1  0.40000000  0.20000000  0.25000000  1
  C  C3  1  0.49967914  0.50024096  0.50455788  1
  C  C4  1  0.59447732  0.79664737  0.75000000  1
  C  C5  1  0.69951507  0.09986733  0.99878447  1
  C  C6  1  0.79524295  0.40117879  0.75000000  1
  C  C7  1  0.90000000  0.70000000  0.99881936  1
  C  C8  1  0.10048493  0.30013267  0.99878447  1
  C  C9  1  0.59966857  0.79982087  0.25000000  1
  C  C10  1  0.69951507  0.09986733  0.50121553  1
  C  C11  1  0.79974025  0.40007112  0.25000000  1
  C  C12  1  0.90000000  0.70000000  0.50118064  1
  C  C13  1  0.00475705  0.99882121  0.75000000  1
  C  C14  1  0.10048493  0.30013267  0.50121553  1
  C  C15  1  0.20552268  0.60335263  0.75000000  1
  C  C16  1  0.30032086  0.89975904  0.99544212  1
  C  C17  1  0.00025975  0.99992888  0.25000000  1
  C  C18  1  0.20033143  0.60017913  0.25000000  1
  C  C19  1  0.30032086  0.89975904  0.50455788  1
  Ti  Ti20  1  0.20061807  0.60063829  0.99900925  1
  Ti  Ti21  1  0.30010730  0.90015932  0.25000000  1
  Ti  Ti22  1  0.20061807  0.60063829  0.50099075  1
  Ti  Ti23  1  0.40000000  0.20000000  0.99889961  1
  Ti  Ti24  1  0.49989270  0.49984068  0.25000000  1
  Ti  Ti25  1  0.59938193  0.79936171  0.99900925  1
  Ti  Ti26  1  0.70002422  0.09977015  0.25000000  1
  Ti  Ti27  1  0.90000000  0.70000000  0.25000000  1
  Ti  Ti28  1  0.40000000  0.20000000  0.50110039  1
  Ti  Ti29  1  0.59938193  0.79936171  0.50099075  1
  Ti  Ti30  1  0.69965101  0.09850920  0.75000000  1
  Ti  Ti31  1  0.79936348  0.39996930  0.99939921  1
  Ti  Ti32  1  0.90000000  0.70000000  0.75000000  1
  Ti  Ti33  1  0.00063652  0.00003070  0.99939921  1
  Ti  Ti34  1  0.09997578  0.30022985  0.25000000  1
  Ti  Ti35  1  0.79936348  0.39996930  0.50060079  1
  Ti  Ti36  1  0.00063652  0.00003070  0.50060079  1
  Ti  Ti37  1  0.10034899  0.30149080  0.75000000  1
  V  V38  1  0.30049123  0.90074761  0.75000000  1
  V  V39  1  0.49950877  0.49925239  0.75000000  1
