# generated using pymatgen
data_Ti4VC5
_symmetry_space_group_name_H-M   'P 1'
_cell_length_a   6.79354173
_cell_length_b   6.79471480
_cell_length_c   8.58783175
_cell_angle_alpha   89.99614934
_cell_angle_beta   90.00937513
_cell_angle_gamma   89.99959347
_symmetry_Int_Tables_number   1
_chemical_formula_structural   Ti4VC5
_chemical_formula_sum   'Ti16 V4 C20'
_cell_volume   396.41584083
_cell_formula_units_Z   4
loop_
 _symmetry_equiv_pos_site_id
 _symmetry_equiv_pos_as_xyz
  1  'x, y, z'
loop_
 _atom_site_type_symbol
 _atom_site_label
 _atom_site_symmetry_multiplicity
 _atom_site_fract_x
 _atom_site_fract_y
 _atom_site_fract_z
 _atom_site_occupancy
  C  C0  1  0.39899722  0.19529000  0.74902725  1
  C  C1  1  0.49998600  0.50050482  0.99879198  1
  C  C2  1  0.40002703  0.19982465  0.25119672  1
  C  C3  1  0.50440759  0.49962608  0.50095359  1
  C  C4  1  0.60089340  0.80001373  0.74928051  1
  C  C5  1  0.70035261  0.09948148  0.99878672  1
  C  C6  1  0.80127837  0.40406751  0.74583448  1
  C  C7  1  0.90019161  0.70033189  0.99541583  1
  C  C8  1  0.09972073  0.29998729  0.99874596  1
  C  C9  1  0.60059031  0.80016611  0.25120694  1
  C  C10  1  0.70548574  0.10267296  0.50068822  1
  C  C11  1  0.80038632  0.39985580  0.25449246  1
  C  C12  1  0.90022817  0.70042844  0.50385641  1
  C  C13  1  0.00295427  0.99512766  0.74621577  1
  C  C14  1  0.09443233  0.29674901  0.50076390  1
  C  C15  1  0.19583581  0.60539193  0.74922094  1
  C  C16  1  0.29971071  0.89966675  0.99544291  1
  C  C17  1  0.99975663  0.00009790  0.25458160  1
  C  C18  1  0.19943506  0.60009274  0.25120772  1
  C  C19  1  0.29536638  0.90057079  0.50418496  1
  Ti  Ti20  1  0.19942692  0.60024439  0.99899847  1
  Ti  Ti21  1  0.29962167  0.89991030  0.25063713  1
  Ti  Ti22  1  0.19921925  0.59905186  0.50085611  1
  Ti  Ti23  1  0.40014784  0.19931893  0.99936840  1
  Ti  Ti24  1  0.50049598  0.49994073  0.25060768  1
  Ti  Ti25  1  0.59988565  0.80024354  0.99890351  1
  Ti  Ti26  1  0.70070982  0.10080089  0.25111740  1
  Ti  Ti27  1  0.89987506  0.70006603  0.25130657  1
  Ti  Ti28  1  0.39996447  0.19931729  0.50059905  1
  Ti  Ti29  1  0.49919526  0.50003011  0.74937378  1
  Ti  Ti30  1  0.60015870  0.80152499  0.50091476  1
  Ti  Ti31  1  0.70246106  0.10047317  0.74911813  1
  Ti  Ti32  1  0.80009045  0.40071832  0.99931885  1
  Ti  Ti33  1  0.00055111  0.99935864  0.99883146  1
  Ti  Ti34  1  0.09943420  0.29933642  0.25111100  1
  Ti  Ti35  1  0.09928299  0.29923402  0.74911936  1
  V  V36  1  0.29990770  0.89935435  0.74941196  1
  V  V37  1  0.89889209  0.70102682  0.74912856  1
  V  V38  1  0.80077522  0.40191057  0.50063489  1
  V  V39  1  0.99986826  0.99819106  0.50074806  1
