# generated using pymatgen
data_Ti7W3C10
_symmetry_space_group_name_H-M   'P 1'
_cell_length_a   6.86044739
_cell_length_b   6.86719480
_cell_length_c   8.68171447
_cell_angle_alpha   89.98063527
_cell_angle_beta   90.00371715
_cell_angle_gamma   89.93423836
_symmetry_Int_Tables_number   1
_chemical_formula_structural   Ti7W3C10
_chemical_formula_sum   'Ti14 W6 C20'
_cell_volume   409.01288753
_cell_formula_units_Z   2
loop_
 _symmetry_equiv_pos_site_id
 _symmetry_equiv_pos_as_xyz
  1  'x, y, z'
loop_
 _atom_site_type_symbol
 _atom_site_label
 _atom_site_symmetry_multiplicity
 _atom_site_fract_x
 _atom_site_fract_y
 _atom_site_fract_z
 _atom_site_occupancy
  C  C0  1  0.40156753  0.20023423  0.74986727  1
  C  C1  1  0.50047518  0.50112343  0.00021048  1
  C  C2  1  0.40022333  0.20033480  0.24950198  1
  C  C3  1  0.50199772  0.49884129  0.49986946  1
  C  C4  1  0.59917329  0.79954134  0.74956826  1
  C  C5  1  0.70128932  0.10140801  0.99990727  1
  C  C6  1  0.79969871  0.39996092  0.74946904  1
  C  C7  1  0.89997118  0.69972512  0.99985145  1
  C  C8  1  0.09992781  0.30006254  0.00046416  1
  C  C9  1  0.59807109  0.79824273  0.25203026  1
  C  C10  1  0.70001888  0.10109986  0.49934271  1
  C  C11  1  0.80027354  0.40124659  0.24997686  1
  C  C12  1  0.90055712  0.69962601  0.50026048  1
  C  C13  1  0.99860187  0.99987439  0.74995860  1
  C  C14  1  0.09921768  0.29907409  0.50008979  1
  C  C15  1  0.20052712  0.59992072  0.74974976  1
  C  C16  1  0.30070323  0.90045272  0.99928653  1
  C  C17  1  0.99937304  0.00002245  0.24923957  1
  C  C18  1  0.19834678  0.59839356  0.25034362  1
  C  C19  1  0.29957417  0.90031009  0.50071283  1
  Ti  Ti20  1  0.19768459  0.60015682  0.99914189  1
  Ti  Ti21  1  0.30180676  0.89645238  0.25040745  1
  Ti  Ti22  1  0.20274111  0.59860727  0.50118006  1
  Ti  Ti23  1  0.29735789  0.89919357  0.75001702  1
  Ti  Ti24  1  0.39978854  0.20442690  0.99785901  1
  Ti  Ti25  1  0.49704260  0.50584243  0.24933966  1
  Ti  Ti26  1  0.39771466  0.19965165  0.50262976  1
  Ti  Ti27  1  0.49885044  0.50332408  0.75071312  1
  Ti  Ti28  1  0.59788689  0.80147984  0.50278530  1
  Ti  Ti29  1  0.80062311  0.40065459  0.99933794  1
  Ti  Ti30  1  0.90179755  0.69791398  0.74980917  1
  Ti  Ti31  1  0.00635843  0.99892471  0.99850041  1
  Ti  Ti32  1  0.00215031  0.99662500  0.50144210  1
  Ti  Ti33  1  0.10348818  0.29940367  0.75054207  1
  W  W34  1  0.59706909  0.79894738  0.99839623  1
  W  W35  1  0.68593321  0.09869642  0.24516707  1
  W  W36  1  0.90447541  0.70903395  0.25003567  1
  W  W37  1  0.69974239  0.09952362  0.75389244  1
  W  W38  1  0.10872702  0.28893741  0.24899090  1
  W  W39  1  0.79917319  0.40270942  0.50011236  1
