# generated using pymatgen
data_ZrTaTiNbN4
_symmetry_space_group_name_H-M   'P 1'
_cell_length_a   6.27175387
_cell_length_b   6.27347436
_cell_length_c   8.83117638
_cell_angle_alpha   90.02805773
_cell_angle_beta   90.01777198
_cell_angle_gamma   90.63230802
_symmetry_Int_Tables_number   1
_chemical_formula_structural   ZrTaTiNbN4
_chemical_formula_sum   'Zr4 Ta4 Ti4 Nb4 N16'
_cell_volume   347.44748459
_cell_formula_units_Z   4
loop_
 _symmetry_equiv_pos_site_id
 _symmetry_equiv_pos_as_xyz
  1  'x, y, z'
loop_
 _atom_site_type_symbol
 _atom_site_label
 _atom_site_symmetry_multiplicity
 _atom_site_fract_x
 _atom_site_fract_y
 _atom_site_fract_z
 _atom_site_occupancy
  N  N0  1  0.74848585  0.74918605  0.50393304  1
  N  N1  1  0.72625740  0.26113712  0.49562914  1
  N  N2  1  0.23903212  0.76554251  0.49980307  1
  N  N3  1  0.26286516  0.24433812  0.49193560  1
  N  N4  1  0.49909730  0.48786563  0.25500425  1
  N  N5  1  0.50005475  0.01285275  0.24987630  1
  N  N6  1  0.74787047  0.76010331  0.99629982  1
  N  N7  1  0.74812551  0.23839470  0.99931802  1
  N  N8  1  0.00250714  0.48963780  0.25269419  1
  N  N9  1  0.00380261  0.01082006  0.24962914  1
  N  N10  1  0.25210930  0.76167622  0.99918751  1
  N  N11  1  0.25287338  0.23916601  0.00615598  1
  N  N12  1  0.51728504  0.48744758  0.74507209  1
  N  N13  1  0.50561772  0.00382665  0.75019970  1
  N  N14  1  0.99111809  0.50594820  0.74979045  1
  N  N15  1  0.00243295  0.98537655  0.75432559  1
  Nb  Nb16  1  0.26890686  0.74289499  0.74468532  1
  Nb  Nb17  1  0.98976025  0.02331196  0.49929597  1
  Nb  Nb18  1  0.00261666  0.48675013  0.49942797  1
  Nb  Nb19  1  0.25959493  0.75376552  0.25275147  1
  Ta  Ta20  1  0.75912437  0.23685471  0.73903899  1
  Ta  Ta21  1  0.73870668  0.75431034  0.74542487  1
  Ta  Ta22  1  0.48172533  0.51300475  0.49821706  1
  Ta  Ta23  1  0.00000833  0.00405286  0.00460768  1
  Ti  Ti24  1  0.50180165  0.99805098  0.49324344  1
  Ti  Ti25  1  0.74925927  0.24157611  0.25823323  1
  Ti  Ti26  1  0.25237055  0.24394486  0.25376868  1
  Ti  Ti27  1  0.49592455  0.99925002  0.00781197  1
  Zr  Zr28  1  0.25100152  0.24774030  0.74555318  1
  Zr  Zr29  1  0.74812050  0.75373154  0.25401158  1
  Zr  Zr30  1  0.49855019  0.49834969  0.00231340  1
  Zr  Zr31  1  0.00299355  0.49909198  0.00276127  1
