# generated using pymatgen
data_YTaTiNbN4
_symmetry_space_group_name_H-M   'P 1'
_cell_length_a   6.31834991
_cell_length_b   6.37421104
_cell_length_c   9.00951814
_cell_angle_alpha   90.23605910
_cell_angle_beta   90.19253847
_cell_angle_gamma   90.02747572
_symmetry_Int_Tables_number   1
_chemical_formula_structural   YTaTiNbN4
_chemical_formula_sum   'Y4 Ta4 Ti4 Nb4 N16'
_cell_volume   362.84862752
_cell_formula_units_Z   4
loop_
 _symmetry_equiv_pos_site_id
 _symmetry_equiv_pos_as_xyz
  1  'x, y, z'
loop_
 _atom_site_type_symbol
 _atom_site_label
 _atom_site_symmetry_multiplicity
 _atom_site_fract_x
 _atom_site_fract_y
 _atom_site_fract_z
 _atom_site_occupancy
  N  N0  1  0.74118329  0.74305073  0.50850421  1
  N  N1  1  0.73820768  0.26122616  0.49529283  1
  N  N2  1  0.25488443  0.76642247  0.49868407  1
  N  N3  1  0.26228739  0.24062797  0.48969948  1
  N  N4  1  0.49069062  0.48659147  0.26094760  1
  N  N5  1  0.49744843  0.01530840  0.24954415  1
  N  N6  1  0.75043596  0.76953442  0.98966708  1
  N  N7  1  0.74941379  0.22466060  0.99802302  1
  N  N8  1  0.01171813  0.48613567  0.26120348  1
  N  N9  1  0.00383598  0.01997296  0.25066253  1
  N  N10  1  0.25510772  0.76958013  0.99452591  1
  N  N11  1  0.25420196  0.22682906  0.01184296  1
  N  N12  1  0.51205975  0.50935213  0.73670722  1
  N  N13  1  0.51506275  0.99021474  0.74297438  1
  N  N14  1  0.97767539  0.49533076  0.74682073  1
  N  N15  1  0.99293511  0.00208594  0.76163255  1
  Nb  Nb16  1  0.22445877  0.74570556  0.74237157  1
  Nb  Nb17  1  0.99307711  0.01114639  0.50211899  1
  Nb  Nb18  1  0.02047050  0.49358077  0.50115644  1
  Nb  Nb19  1  0.25604789  0.76408233  0.24774263  1
  Ta  Ta20  1  0.75919986  0.23856796  0.73050714  1
  Ta  Ta21  1  0.76134318  0.76247330  0.73969967  1
  Ta  Ta22  1  0.47810252  0.50610066  0.49658577  1
  Ta  Ta23  1  0.00452301  0.99512682  0.01102683  1
  Ti  Ti24  1  0.49269738  0.00541213  0.48279942  1
  Ti  Ti25  1  0.74310147  0.23964301  0.26304207  1
  Ti  Ti26  1  0.24946321  0.24242897  0.25743727  1
  Ti  Ti27  1  0.49789857  0.00160715  0.01985212  1
  Y  Y28  1  0.25520916  0.24210000  0.74742150  1
  Y  Y29  1  0.75385394  0.75033696  0.25661519  1
  Y  Y30  1  0.50135560  0.50043036  0.99987783  1
  Y  Y31  1  0.00204947  0.49433403  0.00501336  1
