# generated using pymatgen
data_TaTiNbWN4
_symmetry_space_group_name_H-M   'P 1'
_cell_length_a   6.11255106
_cell_length_b   6.13369000
_cell_length_c   8.89182674
_cell_angle_alpha   89.39682796
_cell_angle_beta   89.58703311
_cell_angle_gamma   89.68696991
_symmetry_Int_Tables_number   1
_chemical_formula_structural   TaTiNbWN4
_chemical_formula_sum   'Ta4 Ti4 Nb4 W4 N16'
_cell_volume   333.34478390
_cell_formula_units_Z   4
loop_
 _symmetry_equiv_pos_site_id
 _symmetry_equiv_pos_as_xyz
  1  'x, y, z'
loop_
 _atom_site_type_symbol
 _atom_site_label
 _atom_site_symmetry_multiplicity
 _atom_site_fract_x
 _atom_site_fract_y
 _atom_site_fract_z
 _atom_site_occupancy
  N  N0  1  0.74055141  0.75046464  0.52003863  1
  N  N1  1  0.74511038  0.24957919  0.50350411  1
  N  N2  1  0.25844381  0.75581404  0.51302632  1
  N  N3  1  0.25314073  0.24548554  0.50949065  1
  N  N4  1  0.51011007  0.50281598  0.23641212  1
  N  N5  1  0.50031111  0.00045834  0.24761070  1
  N  N6  1  0.75896963  0.76747995  0.02269988  1
  N  N7  1  0.74925546  0.23953676  0.00803752  1
  N  N8  1  0.99255208  0.49245749  0.22742333  1
  N  N9  1  0.00271608  0.01389023  0.23408421  1
  N  N10  1  0.25568375  0.73881001  0.01232390  1
  N  N11  1  0.26269802  0.27303796  0.00948444  1
  N  N12  1  0.48243433  0.48696655  0.73781024  1
  N  N13  1  0.50610366  0.00004590  0.75122340  1
  N  N14  1  0.00599775  0.49076117  0.72938187  1
  N  N15  1  0.98061259  0.99353261  0.73620932  1
  Nb  Nb16  1  0.24345583  0.75485738  0.76424097  1
  Nb  Nb17  1  0.99914401  0.99594691  0.48375116  1
  Nb  Nb18  1  0.00273113  0.50616003  0.48064834  1
  Nb  Nb19  1  0.23962860  0.75059297  0.26071037  1
  Ta  Ta20  1  0.74706299  0.25635352  0.76051472  1
  Ta  Ta21  1  0.74109515  0.73556155  0.76929064  1
  Ta  Ta22  1  0.49610306  0.49992517  0.48253959  1
  Ta  Ta23  1  0.01765997  0.01066068  0.98859645  1
  Ti  Ti24  1  0.49941120  0.00193790  0.48490433  1
  Ti  Ti25  1  0.74717512  0.23987675  0.25768513  1
  Ti  Ti26  1  0.25313679  0.25077738  0.25936421  1
  Ti  Ti27  1  0.48771987  0.00624317  0.00011113  1
  W  W28  1  0.23819982  0.22148859  0.76906026  1
  W  W29  1  0.76295719  0.75789452  0.26956259  1
  W  W30  1  0.53021504  0.51038215  0.98680030  1
  W  W31  1  0.98961337  0.50020498  0.98345919  1
