# generated using pymatgen
data_Ti4WC5
_symmetry_space_group_name_H-M   'P 1'
_cell_length_a   6.85346145
_cell_length_b   6.85447450
_cell_length_c   8.68626066
_cell_angle_alpha   89.99389418
_cell_angle_beta   90.00557842
_cell_angle_gamma   89.99095677
_symmetry_Int_Tables_number   1
_chemical_formula_structural   Ti4WC5
_chemical_formula_sum   'Ti16 W4 C20'
_cell_volume   408.05338682
_cell_formula_units_Z   4
loop_
 _symmetry_equiv_pos_site_id
 _symmetry_equiv_pos_as_xyz
  1  'x, y, z'
loop_
 _atom_site_type_symbol
 _atom_site_label
 _atom_site_symmetry_multiplicity
 _atom_site_fract_x
 _atom_site_fract_y
 _atom_site_fract_z
 _atom_site_occupancy
  C  C0  1  0.40061985  0.19822302  0.74983968  1
  C  C1  1  0.49926196  0.49998316  0.99981771  1
  C  C2  1  0.40020891  0.20033558  0.25043788  1
  C  C3  1  0.50170241  0.50121403  0.50005077  1
  C  C4  1  0.60055604  0.80001701  0.75040515  1
  C  C5  1  0.69972634  0.09966555  0.99990255  1
  C  C6  1  0.79964525  0.40063878  0.74981431  1
  C  C7  1  0.90017380  0.70035259  0.99898064  1
  C  C8  1  0.10048191  0.30001751  0.99949241  1
  C  C9  1  0.60018407  0.80015737  0.25040770  1
  C  C10  1  0.70034178  0.10068094  0.49945311  1
  C  C11  1  0.79991952  0.39946079  0.25086510  1
  C  C12  1  0.90048481  0.70059106  0.49956497  1
  C  C13  1  0.00043789  0.00104030  0.75009217  1
  C  C14  1  0.09990353  0.29843208  0.49986406  1
  C  C15  1  0.19788907  0.60005561  0.75014743  1
  C  C16  1  0.30025204  0.89963737  0.99923602  1
  C  C17  1  0.99939646  0.00114892  0.25111089  1
  C  C18  1  0.20021996  0.59911779  0.25037472  1
  C  C19  1  0.29881082  0.89886605  0.50047618  1
  Ti  Ti20  1  0.20133081  0.59778577  0.00172264  1
  Ti  Ti21  1  0.30129346  0.89894570  0.24718009  1
  Ti  Ti22  1  0.20379239  0.59691015  0.49728748  1
  Ti  Ti23  1  0.40034682  0.20038038  0.00196332  1
  Ti  Ti24  1  0.49918260  0.49969729  0.24805334  1
  Ti  Ti25  1  0.59895832  0.80045421  0.00223933  1
  Ti  Ti26  1  0.69818573  0.10070950  0.24806127  1
  Ti  Ti27  1  0.89965063  0.69972064  0.24649131  1
  Ti  Ti28  1  0.40010958  0.19936846  0.49797536  1
  Ti  Ti29  1  0.49738362  0.49637381  0.75213384  1
  Ti  Ti30  1  0.59732320  0.80277342  0.49618837  1
  Ti  Ti31  1  0.70231291  0.10363474  0.75283852  1
  Ti  Ti32  1  0.79881748  0.39913157  0.00268285  1
  Ti  Ti33  1  0.00005692  0.00214891  0.00263193  1
  Ti  Ti34  1  0.10192381  0.30084465  0.24829997  1
  Ti  Ti35  1  0.10032608  0.30066566  0.75268171  1
  W  W36  1  0.30543617  0.89931159  0.75461520  1
  W  W37  1  0.89400486  0.70021233  0.75756411  1
  W  W38  1  0.79938881  0.40475321  0.49548964  1
  W  W39  1  0.99995937  0.99654254  0.49356631  1
