# generated using pymatgen
data_Ti7Mo3C10
_symmetry_space_group_name_H-M   'P 1'
_cell_length_a   6.85126431
_cell_length_b   6.85991732
_cell_length_c   8.68239786
_cell_angle_alpha   89.99773197
_cell_angle_beta   90.01316126
_cell_angle_gamma   89.90660964
_symmetry_Int_Tables_number   1
_chemical_formula_structural   Ti7Mo3C10
_chemical_formula_sum   'Ti14 Mo6 C20'
_cell_volume   408.06439028
_cell_formula_units_Z   2
loop_
 _symmetry_equiv_pos_site_id
 _symmetry_equiv_pos_as_xyz
  1  'x, y, z'
loop_
 _atom_site_type_symbol
 _atom_site_label
 _atom_site_symmetry_multiplicity
 _atom_site_fract_x
 _atom_site_fract_y
 _atom_site_fract_z
 _atom_site_occupancy
  C  C0  1  0.40074915  0.20052002  0.75019020  1
  C  C1  1  0.50009789  0.49982437  0.00069287  1
  C  C2  1  0.40042783  0.19978587  0.24927839  1
  C  C3  1  0.50028834  0.49815837  0.49954651  1
  C  C4  1  0.59931628  0.79845357  0.74892822  1
  C  C5  1  0.70224931  0.10294840  0.99936572  1
  C  C6  1  0.79977760  0.40065341  0.75022522  1
  C  C7  1  0.90157653  0.69963920  0.99837109  1
  C  C8  1  0.10000519  0.30042303  0.99942690  1
  C  C9  1  0.59468237  0.79685717  0.25358382  1
  C  C10  1  0.70002956  0.10061971  0.49963046  1
  C  C11  1  0.79947461  0.40191527  0.24976073  1
  C  C12  1  0.90058990  0.70113542  0.50070364  1
  C  C13  1  0.00008035  0.99930661  0.74997216  1
  C  C14  1  0.10030231  0.29830905  0.50121045  1
  C  C15  1  0.20104372  0.60033646  0.74961641  1
  C  C16  1  0.29947518  0.90108509  0.99948989  1
  C  C17  1  0.00112863  0.00016557  0.24917008  1
  C  C18  1  0.19886160  0.59942487  0.25021976  1
  C  C19  1  0.29956456  0.90053208  0.50087956  1
  Ti  Ti20  1  0.19754126  0.60032904  0.00079244  1
  Ti  Ti21  1  0.30248988  0.89645338  0.25005385  1
  Ti  Ti22  1  0.20087778  0.59812668  0.49944514  1
  Ti  Ti23  1  0.29878005  0.89873626  0.75046028  1
  Ti  Ti24  1  0.39964937  0.20386241  0.99891672  1
  Ti  Ti25  1  0.49746338  0.50433949  0.24978822  1
  Ti  Ti26  1  0.39908451  0.19966915  0.50192765  1
  Ti  Ti27  1  0.50023026  0.50258628  0.75043094  1
  Ti  Ti28  1  0.59880141  0.80099724  0.50168990  1
  Ti  Ti29  1  0.80101535  0.40219359  0.00056095  1
  Ti  Ti30  1  0.90117444  0.69819939  0.74946395  1
  Ti  Ti31  1  0.00576905  0.99975354  0.99851090  1
  Ti  Ti32  1  0.00099877  0.99790515  0.50159758  1
  Ti  Ti33  1  0.10222341  0.29960429  0.75016834  1
  Mo  Mo34  1  0.60081605  0.79997498  0.00107772  1
  Mo  Mo35  1  0.68857535  0.09482278  0.24174106  1
  Mo  Mo36  1  0.90023842  0.71601946  0.24936208  1
  Mo  Mo37  1  0.69937021  0.09931582  0.75744055  1
  Mo  Mo38  1  0.10476550  0.28652156  0.25045712  1
  Mo  Mo39  1  0.80041467  0.40049598  0.49585248  1
