# generated using pymatgen
data_TaTiNbZnN4
_symmetry_space_group_name_H-M   'P 1'
_cell_length_a   6.17449582
_cell_length_b   6.21250587
_cell_length_c   8.73362650
_cell_angle_alpha   90.12326282
_cell_angle_beta   89.88582766
_cell_angle_gamma   89.88418785
_symmetry_Int_Tables_number   1
_chemical_formula_structural   TaTiNbZnN4
_chemical_formula_sum   'Ta4 Ti4 Nb4 Zn4 N16'
_cell_volume   335.01185050
_cell_formula_units_Z   4
loop_
 _symmetry_equiv_pos_site_id
 _symmetry_equiv_pos_as_xyz
  1  'x, y, z'
loop_
 _atom_site_type_symbol
 _atom_site_label
 _atom_site_symmetry_multiplicity
 _atom_site_fract_x
 _atom_site_fract_y
 _atom_site_fract_z
 _atom_site_occupancy
  N  N0  1  0.74145020  0.74351067  0.49728124  1
  N  N1  1  0.74530602  0.25064804  0.49776846  1
  N  N2  1  0.26299576  0.76233033  0.50103025  1
  N  N3  1  0.25444834  0.24096198  0.49892529  1
  N  N4  1  0.49438957  0.49075741  0.25295288  1
  N  N5  1  0.50468180  0.00057563  0.24780378  1
  N  N6  1  0.74633946  0.76050936  0.99359076  1
  N  N7  1  0.74289258  0.23999949  0.99787291  1
  N  N8  1  0.00061152  0.49451444  0.24936775  1
  N  N9  1  0.99507819  0.00671551  0.24861204  1
  N  N10  1  0.25008834  0.75728060  0.99760817  1
  N  N11  1  0.24787763  0.23523747  0.00867715  1
  N  N12  1  0.50925966  0.50674540  0.74429134  1
  N  N13  1  0.50225309  0.99922679  0.74940634  1
  N  N14  1  0.98857983  0.49448284  0.75187593  1
  N  N15  1  0.01581797  0.02490609  0.75613665  1
  Nb  Nb16  1  0.22405652  0.75542528  0.74789326  1
  Nb  Nb17  1  0.99440908  0.99079916  0.50918170  1
  Nb  Nb18  1  0.02427006  0.49245203  0.49382555  1
  Nb  Nb19  1  0.24927044  0.76018295  0.24750203  1
  Ta  Ta20  1  0.75470766  0.23785684  0.75024490  1
  Ta  Ta21  1  0.76422672  0.76731276  0.74574826  1
  Ta  Ta22  1  0.48741540  0.50016143  0.49688610  1
  Ta  Ta23  1  0.99235925  0.99371857  0.99787656  1
  Ti  Ti24  1  0.48700707  0.01295129  0.47989291  1
  Ti  Ti25  1  0.74121935  0.23967844  0.24543063  1
  Ti  Ti26  1  0.25093218  0.24274726  0.24932515  1
  Ti  Ti27  1  0.48948068  0.00462697  0.01703116  1
  Zn  Zn28  1  0.27465061  0.26942457  0.77254241  1
  Zn  Zn29  1  0.75145372  0.72868877  0.24117742  1
  Zn  Zn30  1  0.50654560  0.50586520  0.00407197  1
  Zn  Zn31  1  0.00592573  0.48970643  0.00816907  1
