# generated using pymatgen
data_TaTiNbNiN4
_symmetry_space_group_name_H-M   'P 1'
_cell_length_a   6.13930675
_cell_length_b   6.24108652
_cell_length_c   8.86980189
_cell_angle_alpha   89.71392499
_cell_angle_beta   89.29088777
_cell_angle_gamma   89.69651537
_symmetry_Int_Tables_number   1
_chemical_formula_structural   TaTiNbNiN4
_chemical_formula_sum   'Ta4 Ti4 Nb4 Ni4 N16'
_cell_volume   339.81991650
_cell_formula_units_Z   4
loop_
 _symmetry_equiv_pos_site_id
 _symmetry_equiv_pos_as_xyz
  1  'x, y, z'
loop_
 _atom_site_type_symbol
 _atom_site_label
 _atom_site_symmetry_multiplicity
 _atom_site_fract_x
 _atom_site_fract_y
 _atom_site_fract_z
 _atom_site_occupancy
  N  N0  1  0.74368104  0.75498482  0.50646100  1
  N  N1  1  0.74281388  0.24923315  0.49583843  1
  N  N2  1  0.26182073  0.75611397  0.50229803  1
  N  N3  1  0.25077729  0.24215791  0.48598836  1
  N  N4  1  0.50643480  0.50643502  0.25879369  1
  N  N5  1  0.48981597  0.01145413  0.25063600  1
  N  N6  1  0.73144959  0.77909773  0.97598634  1
  N  N7  1  0.74639617  0.22848682  0.99139457  1
  N  N8  1  0.99296099  0.48570185  0.25950182  1
  N  N9  1  -0.00222891  0.01565778  0.24986702  1
  N  N10  1  0.25363758  0.78017353  0.99050449  1
  N  N11  1  0.23329130  0.22766193  0.00782880  1
  N  N12  1  0.50988940  0.50687776  0.73252305  1
  N  N13  1  0.50245300  -0.00056082  0.74297611  1
  N  N14  1  0.97575325  0.49529772  0.74010163  1
  N  N15  1  0.98327317  -0.00065107  0.74588966  1
  Nb  Nb16  1  0.24897494  0.77350650  0.74931547  1
  Nb  Nb17  1  0.00641959  0.99579346  0.48876975  1
  Nb  Nb18  1  0.00833081  0.50957369  0.49298298  1
  Nb  Nb19  1  0.25591563  0.76182863  0.25808541  1
  Ta  Ta20  1  0.73755183  0.25170534  0.76468240  1
  Ta  Ta21  1  0.74515326  0.74288853  0.75550398  1
  Ta  Ta22  1  0.48131226  0.49186609  0.49092304  1
  Ta  Ta23  1  0.99053217  0.99080174  0.01338309  1
  Ti  Ti24  1  0.49707405  0.00007927  0.48869295  1
  Ti  Ti25  1  0.74273215  0.24434257  0.25055458  1
  Ti  Ti26  1  0.23953932  0.25664236  0.24296754  1
  Ti  Ti27  1  0.48765000  0.99949963  0.01113175  1
  Ni  Ni28  1  0.25075699  0.37900146  0.80780357  1
  Ni  Ni29  1  0.76793353  0.63766258  0.15493609  1
  Ni  Ni30  1  0.50072091  0.40037173  0.04585992  1
  Ni  Ni31  1  0.11718330  0.52631419  0.04781846  1
