# generated using pymatgen
data_TaTiNbIrN4
_symmetry_space_group_name_H-M   'P 1'
_cell_length_a   6.50332341
_cell_length_b   6.31684754
_cell_length_c   8.85131701
_cell_angle_alpha   87.73562244
_cell_angle_beta   88.55902776
_cell_angle_gamma   83.42599227
_symmetry_Int_Tables_number   1
_chemical_formula_structural   TaTiNbIrN4
_chemical_formula_sum   'Ta4 Ti4 Nb4 Ir4 N16'
_cell_volume   360.86572824
_cell_formula_units_Z   4
loop_
 _symmetry_equiv_pos_site_id
 _symmetry_equiv_pos_as_xyz
  1  'x, y, z'
loop_
 _atom_site_type_symbol
 _atom_site_label
 _atom_site_symmetry_multiplicity
 _atom_site_fract_x
 _atom_site_fract_y
 _atom_site_fract_z
 _atom_site_occupancy
  N  N0  1  0.79332314  0.80117371  0.54208442  1
  N  N1  1  0.76487112  0.28474419  0.47506690  1
  N  N2  1  0.24140705  0.74735020  0.52246041  1
  N  N3  1  0.22712169  0.24916138  0.46445351  1
  N  N4  1  0.48391071  0.46027225  0.24779277  1
  N  N5  1  0.46899503  0.01910907  0.22104736  1
  N  N6  1  0.76524394  0.77980364  0.99774838  1
  N  N7  1  0.73894175  0.19121554  0.00748614  1
  N  N8  1  0.04226670  0.54031140  0.22115861  1
  N  N9  1  0.01975316  0.03512807  0.23826075  1
  N  N10  1  0.31753112  0.76166361  0.01530140  1
  N  N11  1  0.18526141  0.20684335  0.97931430  1
  N  N12  1  0.54803997  0.52942255  0.69014956  1
  N  N13  1  0.45270870  0.95143302  0.75539592  1
  N  N14  1  0.99301208  0.49395289  0.74386661  1
  N  N15  1  0.97113868  0.97157399  0.76581706  1
  Nb  Nb16  1  0.25265334  0.69796610  0.77795337  1
  Nb  Nb17  1  0.00302547  0.02108360  0.46923377  1
  Nb  Nb18  1  -0.00432636  0.53530502  0.46668706  1
  Nb  Nb19  1  0.26237869  0.75947112  0.26394912  1
  Ta  Ta20  1  0.80362593  0.26128373  0.78406536  1
  Ta  Ta21  1  0.73750684  0.73705907  0.77133081  1
  Ta  Ta22  1  0.45988428  0.45125896  0.48156435  1
  Ta  Ta23  1  0.01551223  0.94577568  0.01815372  1
  Ti  Ti24  1  0.43389072  0.98620568  0.53116636  1
  Ti  Ti25  1  0.70099805  0.20443026  0.24104319  1
  Ti  Ti26  1  0.23902845  0.27889154  0.20183023  1
  Ti  Ti27  1  0.48448793  0.01787653  0.99148392  1
  Ir  Ir28  1  0.40489300  0.28369019  0.77086391  1
  Ir  Ir29  1  0.67668404  0.81296982  0.33984439  1
  Ir  Ir30  1  0.52640614  0.47869435  0.01829631  1
  Ir  Ir31  1  0.98982499  0.50487953  0.98513005  1
