# generated using pymatgen
data_TaTiNbMoN4
_symmetry_space_group_name_H-M   'P 1'
_cell_length_a   6.11741845
_cell_length_b   6.14475002
_cell_length_c   8.85321590
_cell_angle_alpha   88.98119516
_cell_angle_beta   89.63854228
_cell_angle_gamma   90.15869294
_symmetry_Int_Tables_number   1
_chemical_formula_structural   TaTiNbMoN4
_chemical_formula_sum   'Ta4 Ti4 Nb4 Mo4 N16'
_cell_volume   332.73183529
_cell_formula_units_Z   4
loop_
 _symmetry_equiv_pos_site_id
 _symmetry_equiv_pos_as_xyz
  1  'x, y, z'
loop_
 _atom_site_type_symbol
 _atom_site_label
 _atom_site_symmetry_multiplicity
 _atom_site_fract_x
 _atom_site_fract_y
 _atom_site_fract_z
 _atom_site_occupancy
  N  N0  1  0.73992124  0.75089416  0.52240220  1
  N  N1  1  0.74570476  0.24947078  0.50080530  1
  N  N2  1  0.26134475  0.75541776  0.51433597  1
  N  N3  1  0.25349800  0.24751083  0.50193737  1
  N  N4  1  0.50588611  0.49026894  0.23690738  1
  N  N5  1  0.49829104  0.01537387  0.24530762  1
  N  N6  1  0.74903203  0.77183933  0.02018962  1
  N  N7  1  0.75687750  0.24365054  0.00345970  1
  N  N8  1  0.99681848  0.50018494  0.23556275  1
  N  N9  1  0.00291636  0.00401393  0.23763916  1
  N  N10  1  0.26232762  0.74823485  0.01232768  1
  N  N11  1  0.25459982  0.27152894  0.00719622  1
  N  N12  1  0.48475782  0.48489352  0.73561613  1
  N  N13  1  0.51043361  0.99090251  0.75184456  1
  N  N14  1  0.00488494  0.48535893  0.73447775  1
  N  N15  1  0.97896843  0.98855222  0.74114498  1
  Nb  Nb16  1  0.24247329  0.74654366  0.76478476  1
  Nb  Nb17  1  0.00104721  0.99082501  0.48391722  1
  Nb  Nb18  1  0.00096409  0.51327922  0.48212972  1
  Nb  Nb19  1  0.26347498  0.75170160  0.26008143  1
  Ta  Ta20  1  0.74640536  0.25393151  0.75722844  1
  Ta  Ta21  1  0.74207460  0.72861787  0.77206817  1
  Ta  Ta22  1  0.49721747  0.50234865  0.48464206  1
  Ta  Ta23  1  0.01552181  0.00807925  0.99191578  1
  Ti  Ti24  1  0.50127854  0.99962828  0.48583408  1
  Ti  Ti25  1  0.74827378  0.24471316  0.25478160  1
  Ti  Ti26  1  0.24995125  0.25318075  0.25474413  1
  Ti  Ti27  1  0.48683739  0.01753858  0.99841394  1
  Mo  Mo28  1  0.24340420  0.21008495  0.76832083  1
  Mo  Mo29  1  0.73750711  0.75565569  0.26842392  1
  Mo  Mo30  1  0.52705767  0.50629371  0.98543496  1
  Mo  Mo31  1  0.99024872  0.51948207  0.98612457  1
