# generated using pymatgen
data_TaTiNbVN4
_symmetry_space_group_name_H-M   'P 1'
_cell_length_a   6.07796529
_cell_length_b   6.08625725
_cell_length_c   8.71162375
_cell_angle_alpha   89.91801370
_cell_angle_beta   89.88766214
_cell_angle_gamma   90.22272901
_symmetry_Int_Tables_number   1
_chemical_formula_structural   TaTiNbVN4
_chemical_formula_sum   'Ta4 Ti4 Nb4 V4 N16'
_cell_volume   322.25752314
_cell_formula_units_Z   4
loop_
 _symmetry_equiv_pos_site_id
 _symmetry_equiv_pos_as_xyz
  1  'x, y, z'
loop_
 _atom_site_type_symbol
 _atom_site_label
 _atom_site_symmetry_multiplicity
 _atom_site_fract_x
 _atom_site_fract_y
 _atom_site_fract_z
 _atom_site_occupancy
  N  N0  1  0.74455520  0.74832973  0.49112369  1
  N  N1  1  0.74376812  0.24837999  0.49498539  1
  N  N2  1  0.25745339  0.75494408  0.48874342  1
  N  N3  1  0.25744299  0.24146862  0.49077012  1
  N  N4  1  0.50973939  0.49345385  0.25628319  1
  N  N5  1  0.50308783  0.00850812  0.24978478  1
  N  N6  1  0.74641622  0.73985811  0.99764770  1
  N  N7  1  0.74678496  0.25857055  0.00167150  1
  N  N8  1  0.99595851  0.50037502  0.25301808  1
  N  N9  1  0.99723530  0.99875862  0.25199484  1
  N  N10  1  0.24951590  0.74926179  0.99114745  1
  N  N11  1  0.25328744  0.24891563  0.99275879  1
  N  N12  1  0.50116895  0.49360907  0.76546353  1
  N  N13  1  0.49334783  0.00571228  0.74997577  1
  N  N14  1  0.99762343  0.49473156  0.76774484  1
  N  N15  1  0.01197445  0.00890856  0.75913775  1
  Nb  Nb16  1  0.25052659  0.74253798  0.74187755  1
  Nb  Nb17  1  0.99718611  0.00017850  0.50732227  1
  Nb  Nb18  1  0.00675394  0.49619601  0.50613317  1
  Nb  Nb19  1  0.26314948  0.74486411  0.23863591  1
  Ta  Ta20  1  0.74923272  0.24780508  0.75004248  1
  Ta  Ta21  1  0.75060920  0.75086010  0.75024047  1
  Ta  Ta22  1  0.49661302  0.49691794  0.50791892  1
  Ta  Ta23  1  0.00012257  0.00282050  0.00723874  1
  Ti  Ti24  1  0.50263120  0.99914499  0.49900725  1
  Ti  Ti25  1  0.74956616  0.25025339  0.24233614  1
  Ti  Ti26  1  0.25545547  0.25368803  0.23949137  1
  Ti  Ti27  1  0.49975529  0.00031211  0.00649676  1
  V  V28  1  0.24638042  0.27287098  0.73160233  1
  V  V29  1  0.73122239  0.75575929  0.23059409  1
  V  V30  1  0.47078016  0.49915190  0.02056723  1
  V  V31  1  0.02065539  0.49285350  0.01824447  1
