# generated using pymatgen
data_TaTiMnNbN4
_symmetry_space_group_name_H-M   'P 1'
_cell_length_a   6.17632481
_cell_length_b   6.29280704
_cell_length_c   8.41287393
_cell_angle_alpha   88.79847220
_cell_angle_beta   89.74350287
_cell_angle_gamma   90.91467370
_symmetry_Int_Tables_number   1
_chemical_formula_structural   TaTiMnNbN4
_chemical_formula_sum   'Ta4 Ti4 Mn4 Nb4 N16'
_cell_volume   326.86095756
_cell_formula_units_Z   4
loop_
 _symmetry_equiv_pos_site_id
 _symmetry_equiv_pos_as_xyz
  1  'x, y, z'
loop_
 _atom_site_type_symbol
 _atom_site_label
 _atom_site_symmetry_multiplicity
 _atom_site_fract_x
 _atom_site_fract_y
 _atom_site_fract_z
 _atom_site_occupancy
  N  N0  1  0.74649918  0.75464425  0.49349175  1
  N  N1  1  0.75082223  0.24736475  0.49783078  1
  N  N2  1  0.27092738  0.74777326  0.50596117  1
  N  N3  1  0.25233468  0.25990131  0.50313765  1
  N  N4  1  0.49592922  0.50799054  0.22883508  1
  N  N5  1  0.49029304  0.03077247  0.25163145  1
  N  N6  1  0.74704188  0.77827919  0.01341900  1
  N  N7  1  0.74633850  0.25072081  0.00443814  1
  N  N8  1  0.00393503  0.50620897  0.22330417  1
  N  N9  1  0.00592244  0.02710362  0.25253677  1
  N  N10  1  0.25569233  0.78222513  0.00268910  1
  N  N11  1  0.25531713  0.25845942  0.97720757  1
  N  N12  1  0.49571475  0.52437268  0.75989600  1
  N  N13  1  0.51618605  0.99597260  0.75272745  1
  N  N14  1  0.98517816  0.51667262  0.76053614  1
  N  N15  1  0.97741853  0.01716739  0.75377785  1
  Nb  Nb16  1  0.23671372  0.74642352  0.75918566  1
  Nb  Nb17  1  0.01946639  0.99323566  0.50064222  1
  Nb  Nb18  1  0.00405221  0.50988940  0.49011403  1
  Nb  Nb19  1  0.24689017  0.75645937  0.25107856  1
  Ta  Ta20  1  0.73768104  0.27189643  0.75329021  1
  Ta  Ta21  1  0.74396892  0.75519405  0.77172542  1
  Ta  Ta22  1  0.50473113  0.49840698  0.49353113  1
  Ta  Ta23  1  0.00615364  0.00694294  0.00617846  1
  Ti  Ti24  1  0.48613396  0.01061016  0.49369206  1
  Ti  Ti25  1  0.74612880  0.26307206  0.24740104  1
  Ti  Ti26  1  0.25328669  0.27178087  0.23579150  1
  Ti  Ti27  1  0.49714120  0.01518744  0.00932926  1
  Mn  Mn28  1  0.26439019  0.15635412  0.74290381  1
  Mn  Mn29  1  0.75310758  0.67585360  0.26202378  1
  Mn  Mn30  1  0.50085334  0.43712764  0.00050704  1
  Mn  Mn31  1  0.00375048  0.42593677  0.00118576  1
