# generated using pymatgen
data_HfTaTiNbN4
_symmetry_space_group_name_H-M   'P 1'
_cell_length_a   6.25331733
_cell_length_b   6.25487862
_cell_length_c   8.81727301
_cell_angle_alpha   89.79521161
_cell_angle_beta   90.02862764
_cell_angle_gamma   89.43957892
_symmetry_Int_Tables_number   1
_chemical_formula_structural   HfTaTiNbN4
_chemical_formula_sum   'Hf4 Ta4 Ti4 Nb4 N16'
_cell_volume   344.85778204
_cell_formula_units_Z   4
loop_
 _symmetry_equiv_pos_site_id
 _symmetry_equiv_pos_as_xyz
  1  'x, y, z'
loop_
 _atom_site_type_symbol
 _atom_site_label
 _atom_site_symmetry_multiplicity
 _atom_site_fract_x
 _atom_site_fract_y
 _atom_site_fract_z
 _atom_site_occupancy
  N  N0  1  0.75163221  0.76203508  0.49986965  1
  N  N1  1  0.72827829  0.23660145  0.49343406  1
  N  N2  1  0.24301901  0.74438534  0.49614831  1
  N  N3  1  0.26507405  0.25628334  0.49447281  1
  N  N4  1  0.49989527  0.49710446  0.25352184  1
  N  N5  1  0.50617262  0.01350657  0.24996180  1
  N  N6  1  0.74828333  0.75401976  0.99908700  1
  N  N7  1  0.75214928  0.24446300  0.99825720  1
  N  N8  1  0.00065073  0.49466710  0.25069095  1
  N  N9  1  0.99220079  0.01417347  0.24976962  1
  N  N10  1  0.25361856  0.74745010  0.99624174  1
  N  N11  1  0.25367361  0.24710266  0.00308021  1
  N  N12  1  0.50220591  0.48713676  0.75378624  1
  N  N13  1  0.51172371  0.00996478  0.75085916  1
  N  N14  1  0.00139291  0.50544203  0.75473404  1
  N  N15  1  0.99385273  0.99429221  0.75464309  1
  Nb  Nb16  1  0.26909921  0.75461885  0.74375804  1
  Nb  Nb17  1  0.00465043  0.01668741  0.49705025  1
  Nb  Nb18  1  0.98861427  0.48365116  0.50102767  1
  Nb  Nb19  1  0.25416848  0.76818220  0.24761677  1
  Ta  Ta20  1  0.75623912  0.25305402  0.73361637  1
  Ta  Ta21  1  0.73632289  0.74784074  0.74229622  1
  Ta  Ta22  1  0.50592684  0.50626568  0.50322217  1
  Ta  Ta23  1  0.01065954  0.99843662  0.00661022  1
  Ti  Ti24  1  0.48457363  0.99031939  0.49496277  1
  Ti  Ti25  1  0.74696340  0.24706327  0.26245903  1
  Ti  Ti26  1  0.24945202  0.23518485  0.25439918  1
  Ti  Ti27  1  0.48792719  0.99425336  0.00642339  1
  Hf  Hf28  1  0.25047866  0.24349595  0.74449363  1
  Hf  Hf29  1  0.74904882  0.75697158  0.25489433  1
  Hf  Hf30  1  0.49936382  0.49645324  0.00428215  1
  Hf  Hf31  1  0.00268867  0.49889355  0.00433008  1
