# generated using pymatgen
data_TaTiNbRuN4
_symmetry_space_group_name_H-M   'P 1'
_cell_length_a   6.45227952
_cell_length_b   6.36925296
_cell_length_c   8.58648120
_cell_angle_alpha   89.23738092
_cell_angle_beta   88.70581658
_cell_angle_gamma   97.88734686
_symmetry_Int_Tables_number   1
_chemical_formula_structural   TaTiNbRuN4
_chemical_formula_sum   'Ta4 Ti4 Nb4 Ru4 N16'
_cell_volume   349.39637205
_cell_formula_units_Z   4
loop_
 _symmetry_equiv_pos_site_id
 _symmetry_equiv_pos_as_xyz
  1  'x, y, z'
loop_
 _atom_site_type_symbol
 _atom_site_label
 _atom_site_symmetry_multiplicity
 _atom_site_fract_x
 _atom_site_fract_y
 _atom_site_fract_z
 _atom_site_occupancy
  N  N0  1  0.75498992  0.72673925  0.52160316  1
  N  N1  1  0.74216415  0.23686359  0.49120204  1
  N  N2  1  0.22476242  0.77444014  0.49608974  1
  N  N3  1  0.23550277  0.25466263  0.48232183  1
  N  N4  1  0.47673006  0.55453896  0.27104976  1
  N  N5  1  0.46667638  0.03149516  0.24693784  1
  N  N6  1  0.71759766  0.79349920  0.01779051  1
  N  N7  1  0.76899093  0.21859701  0.00322267  1
  N  N8  1  0.03860461  0.44960228  0.23638595  1
  N  N9  1  0.00980622  0.01185300  0.23788886  1
  N  N10  1  0.21678956  0.77104362  0.99644132  1
  N  N11  1  0.29837001  0.27098703  0.99973658  1
  N  N12  1  0.42034243  0.53863956  0.72036282  1
  N  N13  1  0.52137610  0.96119386  0.74307354  1
  N  N14  1  0.95700670  0.52197982  0.74227376  1
  N  N15  1  0.95565893  0.98006371  0.74814746  1
  Nb  Nb16  1  0.22110758  0.77569953  0.74842873  1
  Nb  Nb17  1  0.99045405  0.00005767  0.49261253  1
  Nb  Nb18  1  0.98448304  0.51539125  0.47695243  1
  Nb  Nb19  1  0.20756791  0.77018772  0.24759469  1
  Ta  Ta20  1  0.77380561  0.22975892  0.75590639  1
  Ta  Ta21  1  0.70763629  0.70956937  0.78370615  1
  Ta  Ta22  1  0.52067584  0.46010805  0.50590753  1
  Ta  Ta23  1  0.02498607  0.01933968  0.98776348  1
  Ti  Ti24  1  0.45973162  0.02317757  0.48340384  1
  Ti  Ti25  1  0.78448361  0.20187384  0.24668523  1
  Ti  Ti26  1  0.28416532  0.29182942  0.23240641  1
  Ti  Ti27  1  0.48936204  0.99811957  0.00678031  1
  Ru  Ru28  1  0.36425202  0.21138466  0.77371391  1
  Ru  Ru29  1  0.74634240  0.77461980  0.27749330  1
  Ru  Ru30  1  0.61489406  0.46646910  0.03875735  1
  Ru  Ru31  1  0.02068367  0.45621505  0.98735986  1
