# generated using pymatgen
data_ScTaTiNbN4
_symmetry_space_group_name_H-M   'P 1'
_cell_length_a   6.20590666
_cell_length_b   6.21867340
_cell_length_c   8.80468014
_cell_angle_alpha   90.10004755
_cell_angle_beta   89.89386231
_cell_angle_gamma   90.06940111
_symmetry_Int_Tables_number   1
_chemical_formula_structural   ScTaTiNbN4
_chemical_formula_sum   'Sc4 Ta4 Ti4 Nb4 N16'
_cell_volume   339.79332798
_cell_formula_units_Z   4
loop_
 _symmetry_equiv_pos_site_id
 _symmetry_equiv_pos_as_xyz
  1  'x, y, z'
loop_
 _atom_site_type_symbol
 _atom_site_label
 _atom_site_symmetry_multiplicity
 _atom_site_fract_x
 _atom_site_fract_y
 _atom_site_fract_z
 _atom_site_occupancy
  N  N0  1  0.73656485  0.75642468  0.49772291  1
  N  N1  1  0.74245083  0.24355102  0.49362012  1
  N  N2  1  0.25895665  0.75055214  0.49857455  1
  N  N3  1  0.25646241  0.25225660  0.49697126  1
  N  N4  1  0.49737790  0.49424152  0.25310738  1
  N  N5  1  0.50331128  0.00889750  0.24874796  1
  N  N6  1  0.74935301  0.75675666  0.99559030  1
  N  N7  1  0.74937310  0.24058517  0.99847723  1
  N  N8  1  0.00172844  0.49334849  0.25344517  1
  N  N9  1  0.99514063  0.01115301  0.24830664  1
  N  N10  1  0.25375280  0.75311771  0.99765227  1
  N  N11  1  0.25286894  0.24165201  0.00510436  1
  N  N12  1  0.50369655  0.50229059  0.74905609  1
  N  N13  1  0.50827703  0.99850375  0.74901906  1
  N  N14  1  0.99963569  0.49211638  0.75876503  1
  N  N15  1  0.99639955  0.00759058  0.75604665  1
  Nb  Nb16  1  0.23791007  0.74685619  0.74855392  1
  Nb  Nb17  1  -0.00129088  0.00245939  0.49764982  1
  Nb  Nb18  1  0.99544818  0.50124814  0.50447827  1
  Nb  Nb19  1  0.25352896  0.76258381  0.24616717  1
  Ta  Ta20  1  0.75317635  0.25533860  0.74125519  1
  Ta  Ta21  1  0.76083964  0.75081115  0.74299643  1
  Ta  Ta22  1  0.50452973  0.49619394  0.49795073  1
  Ta  Ta23  1  0.00465455  0.99743784  0.00632348  1
  Ti  Ti24  1  0.49342661  0.00377726  0.48717195  1
  Ti  Ti25  1  0.74128500  0.24494768  0.25315348  1
  Ti  Ti26  1  0.24919044  0.24320137  0.25318083  1
  Ti  Ti27  1  0.49622034  0.00046480  0.01161952  1
  Sc  Sc28  1  0.25252474  0.24601400  0.74939925  1
  Sc  Sc29  1  0.75137976  0.75073648  0.25127742  1
  Sc  Sc30  1  0.49982877  0.49885634  0.00276060  1
  Sc  Sc31  1  0.00199806  0.49603521  0.00585492  1
