# generated using pymatgen
data_TaTiNbTcN4
_symmetry_space_group_name_H-M   'P 1'
_cell_length_a   6.19024229
_cell_length_b   6.09865953
_cell_length_c   8.74891518
_cell_angle_alpha   88.53992148
_cell_angle_beta   89.38754029
_cell_angle_gamma   89.92625763
_symmetry_Int_Tables_number   1
_chemical_formula_structural   TaTiNbTcN4
_chemical_formula_sum   'Ta4 Ti4 Nb4 Tc4 N16'
_cell_volume   330.16434981
_cell_formula_units_Z   4
loop_
 _symmetry_equiv_pos_site_id
 _symmetry_equiv_pos_as_xyz
  1  'x, y, z'
loop_
 _atom_site_type_symbol
 _atom_site_label
 _atom_site_symmetry_multiplicity
 _atom_site_fract_x
 _atom_site_fract_y
 _atom_site_fract_z
 _atom_site_occupancy
  N  N0  1  0.73949210  0.74992668  0.52205276  1
  N  N1  1  0.74816023  0.25486154  0.49860934  1
  N  N2  1  0.26505688  0.76071142  0.51499989  1
  N  N3  1  0.25470890  0.25014076  0.50365939  1
  N  N4  1  0.50453569  0.49044350  0.23176965  1
  N  N5  1  0.49990050  0.01988727  0.24420513  1
  N  N6  1  0.73889100  0.75303190  0.01902884  1
  N  N7  1  0.77226663  0.24440770  0.99747698  1
  N  N8  1  0.99683884  0.50524756  0.23537704  1
  N  N9  1  0.99905981  0.99739006  0.23984262  1
  N  N10  1  0.28358410  0.74990009  0.01081003  1
  N  N11  1  0.24033499  0.26369757  0.99879944  1
  N  N12  1  0.47219282  0.47940859  0.73612112  1
  N  N13  1  0.51453192  0.99239042  0.75555365  1
  N  N14  1  0.01327815  0.48455486  0.74654019  1
  N  N15  1  0.96873042  0.98349942  0.74583587  1
  Nb  Nb16  1  0.24691810  0.74619998  0.76556870  1
  Nb  Nb17  1  0.00376139  0.99295924  0.48707648  1
  Nb  Nb18  1  0.00917820  0.51893880  0.48411285  1
  Nb  Nb19  1  0.26766887  0.75449969  0.25885260  1
  Ta  Ta20  1  0.74308313  0.26074468  0.75024322  1
  Ta  Ta21  1  0.73859665  0.71468349  0.77213657  1
  Ta  Ta22  1  0.49337943  0.50191100  0.48363848  1
  Ta  Ta23  1  0.00896028  0.99396093  0.99652178  1
  Ti  Ti24  1  0.50643763  0.00297966  0.48798956  1
  Ti  Ti25  1  0.75229407  0.25331643  0.25517969  1
  Ti  Ti26  1  0.23808176  0.25388181  0.25708803  1
  Ti  Ti27  1  0.49528184  0.04397762  0.99855803  1
  Tc  Tc28  1  0.23483670  0.19518826  0.76070806  1
  Tc  Tc29  1  0.72557227  0.75307885  0.26727245  1
  Tc  Tc30  1  0.51357292  0.48451275  0.98535106  1
  Tc  Tc31  1  0.01081380  0.54966746  0.98902050  1
