# generated using pymatgen
data_TaTiNbOsN4
_symmetry_space_group_name_H-M   'P 1'
_cell_length_a   6.23801026
_cell_length_b   6.16355090
_cell_length_c   8.69544800
_cell_angle_alpha   87.87801350
_cell_angle_beta   90.52279294
_cell_angle_gamma   92.32890451
_symmetry_Int_Tables_number   1
_chemical_formula_structural   TaTiNbOsN4
_chemical_formula_sum   'Ta4 Ti4 Nb4 Os4 N16'
_cell_volume   333.81020224
_cell_formula_units_Z   4
loop_
 _symmetry_equiv_pos_site_id
 _symmetry_equiv_pos_as_xyz
  1  'x, y, z'
loop_
 _atom_site_type_symbol
 _atom_site_label
 _atom_site_symmetry_multiplicity
 _atom_site_fract_x
 _atom_site_fract_y
 _atom_site_fract_z
 _atom_site_occupancy
  N  N0  1  0.73278635  0.75971283  0.50180405  1
  N  N1  1  0.75595436  0.23887788  0.48977466  1
  N  N2  1  0.26946903  0.74157193  0.50681271  1
  N  N3  1  0.24788716  0.25760088  0.48482795  1
  N  N4  1  0.50511183  0.52602122  0.26675703  1
  N  N5  1  0.47726465  0.02062167  0.24359901  1
  N  N6  1  0.73621754  0.71846939  0.01755626  1
  N  N7  1  0.75734137  0.24515209  0.99562758  1
  N  N8  1  0.02136818  0.47039162  0.21500315  1
  N  N9  1  0.00435006  0.03411545  0.25826919  1
  N  N10  1  0.26651597  0.73930274  0.00556057  1
  N  N11  1  0.23043511  0.24576495  0.98118892  1
  N  N12  1  0.48571552  0.49802555  0.78434800  1
  N  N13  1  0.52897323  0.97495741  0.75943652  1
  N  N14  1  0.03547834  0.45855400  0.73033057  1
  N  N15  1  0.99078338  0.01097882  0.77064647  1
  Nb  Nb16  1  0.23671763  0.75824041  0.75478437  1
  Nb  Nb17  1  0.01306525  0.98692850  0.51152904  1
  Nb  Nb18  1  0.98845261  0.52114071  0.47292936  1
  Nb  Nb19  1  0.22662282  0.76385228  0.25665213  1
  Ta  Ta20  1  0.74107009  0.26330326  0.74096894  1
  Ta  Ta21  1  0.75534293  0.73725975  0.74939798  1
  Ta  Ta22  1  0.51465735  0.48579435  0.51792560  1
  Ta  Ta23  1  0.98764840  0.96504118  0.01906620  1
  Ti  Ti24  1  0.48873922  0.00904347  0.48321221  1
  Ti  Ti25  1  0.74724965  0.25570662  0.24635207  1
  Ti  Ti26  1  0.26361514  0.27629641  0.24204501  1
  Ti  Ti27  1  0.47979438  0.02890626  0.99887841  1
  Os  Os28  1  0.27181482  0.22291747  0.73452923  1
  Os  Os29  1  0.74616877  0.80357068  0.25865239  1
  Os  Os30  1  0.49649023  0.46627206  0.02880971  1
  Os  Os31  1  0.99689866  0.51560816  0.97272465  1
