# generated using pymatgen
data_TaTiNbPtN4
_symmetry_space_group_name_H-M   'P 1'
_cell_length_a   6.04618369
_cell_length_b   6.15238605
_cell_length_c   10.25737748
_cell_angle_alpha   87.78301765
_cell_angle_beta   92.39528526
_cell_angle_gamma   89.87448792
_symmetry_Int_Tables_number   1
_chemical_formula_structural   TaTiNbPtN4
_chemical_formula_sum   'Ta4 Ti4 Nb4 Pt4 N16'
_cell_volume   380.93710959
_cell_formula_units_Z   4
loop_
 _symmetry_equiv_pos_site_id
 _symmetry_equiv_pos_as_xyz
  1  'x, y, z'
loop_
 _atom_site_type_symbol
 _atom_site_label
 _atom_site_symmetry_multiplicity
 _atom_site_fract_x
 _atom_site_fract_y
 _atom_site_fract_z
 _atom_site_occupancy
  N  N0  1  0.73697206  0.73990341  0.50501401  1
  N  N1  1  0.74151687  0.24273084  0.49763169  1
  N  N2  1  0.25304615  0.74613677  0.50630994  1
  N  N3  1  0.24555122  0.23956461  0.49362099  1
  N  N4  1  0.46825634  0.48080425  0.28453047  1
  N  N5  1  0.46393488  0.02569387  0.30011058  1
  N  N6  1  0.80021118  0.72808562  0.92816308  1
  N  N7  1  0.83384091  0.16815777  0.92350054  1
  N  N8  1  0.98943240  0.47786959  0.28560689  1
  N  N9  1  0.98934301  0.01568329  0.25852956  1
  N  N10  1  0.26615650  0.78894540  0.91720524  1
  N  N11  1  0.29326194  0.17312290  0.04391513  1
  N  N12  1  0.52180936  0.47831087  0.70958560  1
  N  N13  1  0.52949667  0.97347272  0.71864565  1
  N  N14  1  0.99977855  0.48314898  0.70274704  1
  N  N15  1  0.99840616  0.97115718  0.69505037  1
  Nb  Nb16  1  0.25933114  0.73068087  0.71779022  1
  Nb  Nb17  1  0.99757903  0.99493807  0.49144112  1
  Nb  Nb18  1  0.99947212  0.49788384  0.49407742  1
  Nb  Nb19  1  0.22825292  0.76295702  0.30058132  1
  Ta  Ta20  1  0.77405915  0.22521692  0.73913631  1
  Ta  Ta21  1  0.76742035  0.72316992  0.74147300  1
  Ta  Ta22  1  0.48639185  0.48487404  0.49545113  1
  Ta  Ta23  1  0.03924485  0.96267431  0.01938940  1
  Ti  Ti24  1  0.48999177  0.98926101  0.50312795  1
  Ti  Ti25  1  0.72363437  0.26115768  0.29546109  1
  Ti  Ti26  1  0.22951554  0.25397021  0.23272446  1
  Ti  Ti27  1  0.52961950  0.97989253  0.94869024  1
  Pt  Pt28  1  0.37834531  0.35251173  0.88319937  1
  Pt  Pt29  1  0.68843501  0.87644084  0.18891143  1
  Pt  Pt30  1  0.38291551  0.61519585  0.08552358  1
  Pt  Pt31  1  0.89477739  0.55638708  0.09285519  1
