# generated using pymatgen
data_TaTiNbCdN4
_symmetry_space_group_name_H-M   'P 1'
_cell_length_a   6.28915496
_cell_length_b   6.38338112
_cell_length_c   8.99033320
_cell_angle_alpha   90.72444669
_cell_angle_beta   90.19505194
_cell_angle_gamma   89.79105898
_symmetry_Int_Tables_number   1
_chemical_formula_structural   TaTiNbCdN4
_chemical_formula_sum   'Ta4 Ti4 Nb4 Cd4 N16'
_cell_volume   360.89328823
_cell_formula_units_Z   4
loop_
 _symmetry_equiv_pos_site_id
 _symmetry_equiv_pos_as_xyz
  1  'x, y, z'
loop_
 _atom_site_type_symbol
 _atom_site_label
 _atom_site_symmetry_multiplicity
 _atom_site_fract_x
 _atom_site_fract_y
 _atom_site_fract_z
 _atom_site_occupancy
  N  N0  1  0.74111909  0.74175460  0.50392400  1
  N  N1  1  0.74645844  0.24655836  0.49702806  1
  N  N2  1  0.26261543  0.76227929  0.49601502  1
  N  N3  1  0.25392353  0.23882170  0.49505897  1
  N  N4  1  0.48634794  0.47687573  0.26619568  1
  N  N5  1  0.50244295  0.00650986  0.25204078  1
  N  N6  1  0.74779128  0.78237371  0.98148174  1
  N  N7  1  0.74105427  0.22272740  0.99293089  1
  N  N8  1  0.01962648  0.48603352  0.26584541  1
  N  N9  1  0.00169309  0.01312949  0.24942365  1
  N  N10  1  0.25000927  0.77994186  0.99458896  1
  N  N11  1  0.24797972  0.21722325  0.02221264  1
  N  N12  1  0.52206484  0.51785434  0.73195882  1
  N  N13  1  0.51074126  0.99331690  0.73796936  1
  N  N14  1  0.97346048  0.50057159  0.74154530  1
  N  N15  1  0.00755553  0.01931949  0.75967349  1
  Nb  Nb16  1  0.21944709  0.75800048  0.73674571  1
  Nb  Nb17  1  0.99205003  0.98681523  0.51399910  1
  Nb  Nb18  1  0.03355761  0.48982229  0.49812829  1
  Nb  Nb19  1  0.25187596  0.77390435  0.24952691  1
  Ta  Ta20  1  0.75597577  0.23134116  0.73681076  1
  Ta  Ta21  1  0.76480396  0.77244960  0.73818749  1
  Ta  Ta22  1  0.48485249  0.50221629  0.49837899  1
  Ta  Ta23  1  0.99095477  0.99818118  0.99742787  1
  Ti  Ti24  1  0.48283071  0.01360336  0.47926897  1
  Ti  Ti25  1  0.73804902  0.23103636  0.25821683  1
  Ti  Ti26  1  0.25248425  0.23628221  0.25402571  1
  Ti  Ti27  1  0.49018604  0.00332066  0.02677840  1
  Cd  Cd28  1  0.27352632  0.27048072  0.76967620  1
  Cd  Cd29  1  0.75408003  0.72655744  0.24422087  1
  Cd  Cd30  1  0.50155292  0.50554304  0.00302214  1
  Cd  Cd31  1  0.99888942  0.49515455  0.00769296  1
