# generated using pymatgen
data_TaTiNbCrN4
_symmetry_space_group_name_H-M   'P 1'
_cell_length_a   6.16223459
_cell_length_b   6.12987876
_cell_length_c   8.52949735
_cell_angle_alpha   88.87920427
_cell_angle_beta   89.84648906
_cell_angle_gamma   90.49407198
_symmetry_Int_Tables_number   1
_chemical_formula_structural   TaTiNbCrN4
_chemical_formula_sum   'Ta4 Ti4 Nb4 Cr4 N16'
_cell_volume   322.11618245
_cell_formula_units_Z   4
loop_
 _symmetry_equiv_pos_site_id
 _symmetry_equiv_pos_as_xyz
  1  'x, y, z'
loop_
 _atom_site_type_symbol
 _atom_site_label
 _atom_site_symmetry_multiplicity
 _atom_site_fract_x
 _atom_site_fract_y
 _atom_site_fract_z
 _atom_site_occupancy
  N  N0  1  0.74453781  0.76647969  0.50506334  1
  N  N1  1  0.74874983  0.24795729  0.49887257  1
  N  N2  1  0.26720479  0.74944737  0.50273463  1
  N  N3  1  0.25565871  0.26414467  0.49320714  1
  N  N4  1  0.50368474  0.50827991  0.23403327  1
  N  N5  1  0.50394324  0.01024763  0.25151885  1
  N  N6  1  0.74757800  0.76332605  0.00438632  1
  N  N7  1  0.74692022  0.25529922  0.00449488  1
  N  N8  1  0.99459805  0.50611760  0.23000731  1
  N  N9  1  0.99261227  0.00956688  0.25215408  1
  N  N10  1  0.25334594  0.76157520  0.00051749  1
  N  N11  1  0.25619348  0.25716189  0.98151861  1
  N  N12  1  0.47848414  0.49710285  0.75128358  1
  N  N13  1  0.51304598  0.00207314  0.75436281  1
  N  N14  1  0.01091174  0.49981021  0.75673497  1
  N  N15  1  0.97970429  0.00791598  0.75584230  1
  Nb  Nb16  1  0.24290968  0.75378581  0.75437410  1
  Nb  Nb17  1  0.01629977  0.00024738  0.50444227  1
  Nb  Nb18  1  0.99966208  0.51237701  0.49035099  1
  Nb  Nb19  1  0.24808203  0.75921866  0.25115216  1
  Ta  Ta20  1  0.74574604  0.27437680  0.75622468  1
  Ta  Ta21  1  0.74472726  0.73217135  0.76337154  1
  Ta  Ta22  1  0.51123942  0.50494431  0.48950739  1
  Ta  Ta23  1  0.00294009  0.00478735  0.00528880  1
  Ti  Ti24  1  0.48532136  0.01078569  0.50301551  1
  Ti  Ti25  1  0.74454194  0.26309833  0.24384846  1
  Ti  Ti26  1  0.25268943  0.26370289  0.23439533  1
  Ti  Ti27  1  0.49863473  0.01250312  0.00538052  1
  Cr  Cr28  1  0.25251211  0.19343020  0.73934671  1
  Cr  Cr29  1  0.75151550  0.71544135  0.26967588  1
  Cr  Cr30  1  0.49802535  0.45400762  0.00586570  1
  Cr  Cr31  1  0.00797996  0.43861653  0.00702779  1
