# generated using pymatgen
data_TaTiNbAuN4
_symmetry_space_group_name_H-M   'P 1'
_cell_length_a   5.97935950
_cell_length_b   6.05898689
_cell_length_c   10.99971084
_cell_angle_alpha   94.11934728
_cell_angle_beta   89.54775038
_cell_angle_gamma   90.63004532
_symmetry_Int_Tables_number   1
_chemical_formula_structural   TaTiNbAuN4
_chemical_formula_sum   'Ta4 Ti4 Nb4 Au4 N16'
_cell_volume   397.44337185
_cell_formula_units_Z   4
loop_
 _symmetry_equiv_pos_site_id
 _symmetry_equiv_pos_as_xyz
  1  'x, y, z'
loop_
 _atom_site_type_symbol
 _atom_site_label
 _atom_site_symmetry_multiplicity
 _atom_site_fract_x
 _atom_site_fract_y
 _atom_site_fract_z
 _atom_site_occupancy
  N  N0  1  0.75116532  0.73342214  0.50897016  1
  N  N1  1  0.75093610  0.23173754  0.50001534  1
  N  N2  1  0.26460769  0.74043815  0.50539764  1
  N  N3  1  0.25676943  0.23138772  0.50414100  1
  N  N4  1  0.50222775  0.43528711  0.31057318  1
  N  N5  1  0.49682411  0.97391449  0.31467126  1
  N  N6  1  0.75366155  0.81871431  0.90858532  1
  N  N7  1  0.75632102  0.24377264  0.92047452  1
  N  N8  1  0.01715664  0.43636160  0.30598163  1
  N  N9  1  0.01569651  0.96790234  0.30823964  1
  N  N10  1  0.25077989  0.86408874  0.88232993  1
  N  N11  1  0.26268982  0.09307735  0.09403225  1
  N  N12  1  0.50947830  0.51100722  0.70269272  1
  N  N13  1  0.51897708  0.00841147  0.69526498  1
  N  N14  1  0.98636616  0.51469522  0.70189814  1
  N  N15  1  0.98420150  0.01328224  0.69645642  1
  Nb  Nb16  1  0.24926576  0.77193812  0.70276949  1
  Nb  Nb17  1  0.00796572  0.97908230  0.50006709  1
  Nb  Nb18  1  0.01143043  0.48699043  0.50306546  1
  Nb  Nb19  1  0.25337473  0.69463111  0.31266430  1
  Ta  Ta20  1  0.74569410  0.26050088  0.74310193  1
  Ta  Ta21  1  0.74977682  0.76324772  0.73582102  1
  Ta  Ta22  1  0.49802183  0.48257048  0.50257695  1
  Ta  Ta23  1  0.01406849  0.03214885  0.97042242  1
  Ti  Ti24  1  0.50338183  0.98338101  0.49817959  1
  Ti  Ti25  1  0.75933391  0.22858808  0.31506357  1
  Ti  Ti26  1  0.26108241  0.18786293  0.26080834  1
  Ti  Ti27  1  0.49494937  0.02282726  0.96620615  1
  Au  Au28  1  0.26808544  0.35179262  0.85454132  1
  Au  Au29  1  0.75238564  0.83231696  0.17134121  1
  Au  Au30  1  0.40010830  0.59906743  0.07092029  1
  Au  Au31  1  0.95321634  0.50555353  0.03272670  1
