# generated using pymatgen
data_TaTiNbCuN4
_symmetry_space_group_name_H-M   'P 1'
_cell_length_a   6.16497167
_cell_length_b   6.23893923
_cell_length_c   8.85758351
_cell_angle_alpha   90.40547843
_cell_angle_beta   89.96554549
_cell_angle_gamma   90.23882485
_symmetry_Int_Tables_number   1
_chemical_formula_structural   TaTiNbCuN4
_chemical_formula_sum   'Ta4 Ti4 Nb4 Cu4 N16'
_cell_volume   340.67665711
_cell_formula_units_Z   4
loop_
 _symmetry_equiv_pos_site_id
 _symmetry_equiv_pos_as_xyz
  1  'x, y, z'
loop_
 _atom_site_type_symbol
 _atom_site_label
 _atom_site_symmetry_multiplicity
 _atom_site_fract_x
 _atom_site_fract_y
 _atom_site_fract_z
 _atom_site_occupancy
  N  N0  1  0.75863093  0.74804785  0.50703260  1
  N  N1  1  0.75089715  0.24215710  0.49168878  1
  N  N2  1  0.26289922  0.74411552  0.49109480  1
  N  N3  1  0.26665604  0.23791210  0.49701924  1
  N  N4  1  0.51017471  0.47482265  0.25653874  1
  N  N5  1  0.50507264  0.00576762  0.24112254  1
  N  N6  1  0.75648886  0.78821848  0.97182269  1
  N  N7  1  0.76497877  0.23929205  0.99122718  1
  N  N8  1  0.02451651  0.48319306  0.24858693  1
  N  N9  1  0.00853959  -0.00309483  0.23890670  1
  N  N10  1  0.26834122  0.76056385  0.99085035  1
  N  N11  1  0.26745212  0.21429242  0.01116339  1
  N  N12  1  0.52056597  0.49490491  0.73369806  1
  N  N13  1  0.51646282  -0.00109337  0.74309035  1
  N  N14  1  0.99354176  0.50284443  0.72862809  1
  N  N15  1  0.00282739  -0.00244558  0.74199558  1
  Nb  Nb16  1  0.26015090  0.77061107  0.74918316  1
  Nb  Nb17  1  0.01795645  0.00768524  0.48623158  1
  Nb  Nb18  1  0.02063439  0.47763883  0.48574773  1
  Nb  Nb19  1  0.25037801  0.74978780  0.23186028  1
  Ta  Ta20  1  0.75841786  0.23721623  0.75443602  1
  Ta  Ta21  1  0.75674383  0.73175192  0.74987479  1
  Ta  Ta22  1  0.49186350  0.48110684  0.49176212  1
  Ta  Ta23  1  0.01891880  0.00118016  0.99882638  1
  Ti  Ti24  1  0.49669515  0.00419811  0.49551810  1
  Ti  Ti25  1  0.75440317  0.22909065  0.23585478  1
  Ti  Ti26  1  0.25856647  0.24165720  0.24877134  1
  Ti  Ti27  1  0.50913562  0.00543208  -0.00903473  1
  Cu  Cu28  1  0.22790473  0.35113103  0.82031696  1
  Cu  Cu29  1  0.68995187  0.74930472  0.28068760  1
  Cu  Cu30  1  0.43966612  0.49356509  0.03429757  1
  Cu  Cu31  1  0.87056742  0.53914476  0.06120033  1
