# generated using pymatgen
data_TaTiNbFeN4
_symmetry_space_group_name_H-M   'P 1'
_cell_length_a   6.15398769
_cell_length_b   6.24156534
_cell_length_c   8.69540234
_cell_angle_alpha   89.71462043
_cell_angle_beta   89.18236926
_cell_angle_gamma   90.83117608
_symmetry_Int_Tables_number   1
_chemical_formula_structural   TaTiNbFeN4
_chemical_formula_sum   'Ta4 Ti4 Nb4 Fe4 N16'
_cell_volume   333.92125093
_cell_formula_units_Z   4
loop_
 _symmetry_equiv_pos_site_id
 _symmetry_equiv_pos_as_xyz
  1  'x, y, z'
loop_
 _atom_site_type_symbol
 _atom_site_label
 _atom_site_symmetry_multiplicity
 _atom_site_fract_x
 _atom_site_fract_y
 _atom_site_fract_z
 _atom_site_occupancy
  N  N0  1  0.73365725  0.76821495  0.50689710  1
  N  N1  1  0.73950972  0.25798525  0.49805361  1
  N  N2  1  0.25631924  0.75934367  0.50142263  1
  N  N3  1  0.24405793  0.25866330  0.49136183  1
  N  N4  1  0.50246801  0.51367906  0.24676651  1
  N  N5  1  0.48889194  0.01467896  0.25391774  1
  N  N6  1  0.73291741  0.77285274  0.99209586  1
  N  N7  1  0.75082956  0.24207438  0.99958003  1
  N  N8  1  0.00974242  0.48687715  0.23701808  1
  N  N9  1  0.99858232  0.02024294  0.25383770  1
  N  N10  1  0.24955602  0.77050282  0.99638553  1
  N  N11  1  0.25623555  0.24697857  0.99644571  1
  N  N12  1  0.49594349  0.52396725  0.73821213  1
  N  N13  1  0.49573858  0.00602384  0.75154208  1
  N  N14  1  0.97781270  0.52349107  0.74233494  1
  N  N15  1  0.98526460  0.00831249  0.75189136  1
  Nb  Nb16  1  0.23547689  0.75451779  0.76041721  1
  Nb  Nb17  1  0.00058487  -0.00036970  0.49587402  1
  Nb  Nb18  1  0.99700939  0.52097977  0.48770582  1
  Nb  Nb19  1  0.23476629  0.75338137  0.24726396  1
  Ta  Ta20  1  0.76502687  0.26616658  0.75649717  1
  Ta  Ta21  1  0.72826592  0.76310374  0.76007297  1
  Ta  Ta22  1  0.49106224  0.50716580  0.48927692  1
  Ta  Ta23  1  0.99470358  0.99218314  0.00965572  1
  Ti  Ti24  1  0.48215631  0.00434352  0.48666357  1
  Ti  Ti25  1  0.74846914  0.25260555  0.24673820  1
  Ti  Ti26  1  0.25125836  0.25899810  0.24689113  1
  Ti  Ti27  1  0.49323678  0.00650929  0.01049886  1
  Fe  Fe28  1  0.36118788  0.27119753  0.79561032  1
  Fe  Fe29  1  0.78321848  0.65505437  0.18228388  1
  Fe  Fe30  1  0.50997578  0.41365422  0.04235781  1
  Fe  Fe31  1  0.00607448  0.40662048  0.02442958  1
