# generated using pymatgen
data_TaTiNbRhN4
_symmetry_space_group_name_H-M   'P 1'
_cell_length_a   6.05456467
_cell_length_b   6.10406194
_cell_length_c   10.06409957
_cell_angle_alpha   92.51260333
_cell_angle_beta   89.26222336
_cell_angle_gamma   89.64124768
_symmetry_Int_Tables_number   1
_chemical_formula_structural   TaTiNbRhN4
_chemical_formula_sum   'Ta4 Ti4 Nb4 Rh4 N16'
_cell_volume   371.54626824
_cell_formula_units_Z   4
loop_
 _symmetry_equiv_pos_site_id
 _symmetry_equiv_pos_as_xyz
  1  'x, y, z'
loop_
 _atom_site_type_symbol
 _atom_site_label
 _atom_site_symmetry_multiplicity
 _atom_site_fract_x
 _atom_site_fract_y
 _atom_site_fract_z
 _atom_site_occupancy
  N  N0  1  0.74741586  0.73886504  0.50680299  1
  N  N1  1  0.75132978  0.23516460  0.49664242  1
  N  N2  1  0.26276789  0.74038005  0.49895408  1
  N  N3  1  0.25519998  0.23230654  0.48737139  1
  N  N4  1  0.51434749  0.46273593  0.29800587  1
  N  N5  1  0.49896484  0.98980718  0.29773256  1
  N  N6  1  0.73299655  0.79729169  0.94217546  1
  N  N7  1  0.82679089  0.22762807  0.93328588  1
  N  N8  1  0.01679870  0.47287953  0.28752255  1
  N  N9  1  0.02135505  0.98074405  0.25571554  1
  N  N10  1  0.21395411  0.82295443  0.91991113  1
  N  N11  1  0.24660591  0.23998570  0.04243144  1
  N  N12  1  0.51531674  0.50675389  0.71021462  1
  N  N13  1  0.51141876  0.00625801  0.72300644  1
  N  N14  1  0.99184943  0.50954812  0.70909561  1
  N  N15  1  0.98385634  0.99558991  0.69533214  1
  Nb  Nb16  1  0.24263363  0.76625376  0.71979072  1
  Nb  Nb17  1  0.00481280  0.98339476  0.48536436  1
  Nb  Nb18  1  0.00727905  0.49243263  0.49411078  1
  Nb  Nb19  1  0.25488230  0.72659812  0.28966829  1
  Ta  Ta20  1  0.76256456  0.25785804  0.74541802  1
  Ta  Ta21  1  0.75178046  0.75534068  0.75211480  1
  Ta  Ta22  1  0.50252518  0.48159572  0.49764286  1
  Ta  Ta23  1  0.98979744  0.98839861  0.03262399  1
  Ti  Ti24  1  0.50457277  0.98185361  0.50320449  1
  Ti  Ti25  1  0.75420778  0.21177501  0.28517799  1
  Ti  Ti26  1  0.26309965  0.22631588  0.25713421  1
  Ti  Ti27  1  0.46378608  0.03581700  0.93314804  1
  Rh  Rh28  1  0.32709705  0.43831075  0.87919016  1
  Rh  Rh29  1  0.62178325  0.84144431  0.13116571  1
  Rh  Rh30  1  0.50862703  0.43008707  0.10052475  1
  Rh  Rh31  1  0.94958267  0.42363131  0.08952070  1
