# generated using pymatgen
data_TaTiNbReN4
_symmetry_space_group_name_H-M   'P 1'
_cell_length_a   6.21024695
_cell_length_b   6.09664145
_cell_length_c   8.77512676
_cell_angle_alpha   88.70191333
_cell_angle_beta   89.03891899
_cell_angle_gamma   90.59291233
_symmetry_Int_Tables_number   1
_chemical_formula_structural   TaTiNbReN4
_chemical_formula_sum   'Ta4 Ti4 Nb4 Re4 N16'
_cell_volume   332.08964979
_cell_formula_units_Z   4
loop_
 _symmetry_equiv_pos_site_id
 _symmetry_equiv_pos_as_xyz
  1  'x, y, z'
loop_
 _atom_site_type_symbol
 _atom_site_label
 _atom_site_symmetry_multiplicity
 _atom_site_fract_x
 _atom_site_fract_y
 _atom_site_fract_z
 _atom_site_occupancy
  N  N0  1  0.75034319  0.74521536  0.52032586  1
  N  N1  1  0.74140578  0.25506521  0.50187559  1
  N  N2  1  0.25567977  0.75833630  0.51174843  1
  N  N3  1  0.26806221  0.24063660  0.51167230  1
  N  N4  1  0.50762642  0.49110347  0.23079046  1
  N  N5  1  0.49546335  0.02473063  0.24241127  1
  N  N6  1  0.73535109  0.75695471  0.02126056  1
  N  N7  1  0.77914382  0.24781235  0.00091877  1
  N  N8  1  0.98564564  0.51625061  0.23257134  1
  N  N9  1  -0.00134678  0.99421984  0.23860135  1
  N  N10  1  0.28717480  0.74396743  0.00879585  1
  N  N11  1  0.23829839  0.27583626  0.99908752  1
  N  N12  1  0.46534478  0.47948499  0.73750992  1
  N  N13  1  0.51510436  0.98997000  0.75324299  1
  N  N14  1  0.01529626  0.47664451  0.74569591  1
  N  N15  1  0.96616611  0.99014932  0.74350540  1
  Nb  Nb16  1  0.24063930  0.75011535  0.76126622  1
  Nb  Nb17  1  0.00286121  0.01074390  0.48666690  1
  Nb  Nb18  1  0.01559368  0.48988803  0.48298271  1
  Nb  Nb19  1  0.26835792  0.75510491  0.25849986  1
  Ta  Ta20  1  0.73804570  0.26494141  0.75447742  1
  Ta  Ta21  1  0.74024995  0.71686438  0.76875792  1
  Ta  Ta22  1  0.49487535  0.50338479  0.48401040  1
  Ta  Ta23  1  0.01153084  0.99215189  0.99444641  1
  Ti  Ti24  1  0.51533866  0.99697400  0.48448580  1
  Ti  Ti25  1  0.75727229  0.24609175  0.25623193  1
  Ti  Ti26  1  0.23169210  0.26004731  0.26402057  1
  Ti  Ti27  1  0.49257699  0.04393144  0.99900809  1
  Re  Re28  1  0.23954963  0.19344281  0.76324929  1
  Re  Re29  1  0.72023856  0.76069112  0.26983965  1
  Re  Re30  1  0.51933858  0.48054315  0.98493738  1
  Re  Re31  1  0.00708006  0.54870618  0.98710591  1
