# generated using pymatgen
data_TaTiNbCoN4
_symmetry_space_group_name_H-M   'P 1'
_cell_length_a   6.13783029
_cell_length_b   6.25769468
_cell_length_c   8.75073835
_cell_angle_alpha   90.00817123
_cell_angle_beta   89.96010343
_cell_angle_gamma   90.98797290
_symmetry_Int_Tables_number   1
_chemical_formula_structural   TaTiNbCoN4
_chemical_formula_sum   'Ta4 Ti4 Nb4 Co4 N16'
_cell_volume   336.05415275
_cell_formula_units_Z   4
loop_
 _symmetry_equiv_pos_site_id
 _symmetry_equiv_pos_as_xyz
  1  'x, y, z'
loop_
 _atom_site_type_symbol
 _atom_site_label
 _atom_site_symmetry_multiplicity
 _atom_site_fract_x
 _atom_site_fract_y
 _atom_site_fract_z
 _atom_site_occupancy
  N  N0  1  0.74371520  0.75394152  0.50775526  1
  N  N1  1  0.73854595  0.25047107  0.49164802  1
  N  N2  1  0.25350920  0.75035664  0.49632320  1
  N  N3  1  0.26069458  0.23752790  0.48807379  1
  N  N4  1  0.50649551  0.50955120  0.25575581  1
  N  N5  1  0.49165880  0.01136113  0.25055154  1
  N  N6  1  0.73943652  0.78924195  0.98238176  1
  N  N7  1  0.74972797  0.25389464  0.98974330  1
  N  N8  1  0.00051587  0.50004663  0.25827302  1
  N  N9  1  0.00177475  0.00665519  0.25066899  1
  N  N10  1  0.25210612  0.78543833  0.99357043  1
  N  N11  1  0.25732682  0.24711355  0.99620270  1
  N  N12  1  0.50813287  0.50367358  0.74184379  1
  N  N13  1  0.51091376  0.99999998  0.74497413  1
  N  N14  1  0.98169883  0.51887121  0.74934055  1
  N  N15  1  0.99026753  0.00084665  0.74965621  1
  Nb  Nb16  1  0.24628126  0.78370946  0.75756611  1
  Nb  Nb17  1  0.00076840  0.00988604  0.49336622  1
  Nb  Nb18  1  0.01050449  0.48030221  0.50189476  1
  Nb  Nb19  1  0.25006132  0.73675961  0.22817271  1
  Ta  Ta20  1  0.75481378  0.24564360  0.74864095  1
  Ta  Ta21  1  0.74359565  0.73829115  0.75307976  1
  Ta  Ta22  1  0.48760607  0.49717655  0.49470058  1
  Ta  Ta23  1  0.99759030  0.00505801  0.00676361  1
  Ti  Ti24  1  0.49990614  0.00422390  0.48978344  1
  Ti  Ti25  1  0.75020092  0.24891837  0.24975620  1
  Ti  Ti26  1  0.25393598  0.24589241  0.24786790  1
  Ti  Ti27  1  0.50076623  0.01042956  0.00630341  1
  Co  Co28  1  0.23415240  0.39102782  0.80204039  1
  Co  Co29  1  0.76685328  0.65663921  0.16722143  1
  Co  Co30  1  0.50057539  0.41577814  0.05316232  1
  Co  Co31  1  0.01586810  0.41127281  0.05291771  1
