# generated using pymatgen
data_TaTiNbAgN4
_symmetry_space_group_name_H-M   'P 1'
_cell_length_a   6.02917851
_cell_length_b   6.17892670
_cell_length_c   10.02494585
_cell_angle_alpha   91.00661469
_cell_angle_beta   89.50402783
_cell_angle_gamma   90.44489836
_symmetry_Int_Tables_number   1
_chemical_formula_structural   TaTiNbAgN4
_chemical_formula_sum   'Ta4 Ti4 Nb4 Ag4 N16'
_cell_volume   373.38539912
_cell_formula_units_Z   4
loop_
 _symmetry_equiv_pos_site_id
 _symmetry_equiv_pos_as_xyz
  1  'x, y, z'
loop_
 _atom_site_type_symbol
 _atom_site_label
 _atom_site_symmetry_multiplicity
 _atom_site_fract_x
 _atom_site_fract_y
 _atom_site_fract_z
 _atom_site_occupancy
  N  N0  1  0.73112387  0.75025120  0.50071708  1
  N  N1  1  0.73446137  0.24808012  0.49688532  1
  N  N2  1  0.24819898  0.75858019  0.50638482  1
  N  N3  1  0.24035230  0.24774100  0.49111232  1
  N  N4  1  0.48057941  0.47784972  0.29147874  1
  N  N5  1  0.48014736  0.00221689  0.27590779  1
  N  N6  1  0.70437723  0.80549584  0.95996360  1
  N  N7  1  0.85976554  0.21707266  0.90801049  1
  N  N8  1  -0.00447303  0.47436455  0.28622597  1
  N  N9  1  0.98278836  0.00316204  0.26216068  1
  N  N10  1  0.20232436  0.84666361  0.92603527  1
  N  N11  1  0.25366763  0.20971423  0.07010815  1
  N  N12  1  0.50196902  0.52554182  0.71660731  1
  N  N13  1  0.50729491  0.00354385  0.70574300  1
  N  N14  1  0.97603959  0.53065517  0.71263029  1
  N  N15  1  0.97618973  -0.00599473  0.69286742  1
  Nb  Nb16  1  0.22992365  0.76937196  0.73292910  1
  Nb  Nb17  1  0.98963417  -0.00925182  0.48276979  1
  Nb  Nb18  1  -0.00932719  0.51212560  0.49653213  1
  Nb  Nb19  1  0.23746761  0.73426231  0.29130871  1
  Ta  Ta20  1  0.75916068  0.25792881  0.72697264  1
  Ta  Ta21  1  0.73276831  0.76801185  0.76462338  1
  Ta  Ta22  1  0.48413056  0.50399900  0.50069018  1
  Ta  Ta23  1  0.97241866  0.01259625  0.04155753  1
  Ti  Ti24  1  0.48735886  -0.00271085  0.49022477  1
  Ti  Ti25  1  0.73324431  0.24997053  0.29227965  1
  Ti  Ti26  1  0.23708919  0.24368382  0.26528430  1
  Ti  Ti27  1  0.45354491  0.95904111  0.06504250  1
  Ag  Ag28  1  0.27714725  0.25740263  0.82168905  1
  Ag  Ag29  1  0.74845423  0.69258373  0.19102705  1
  Ag  Ag30  1  0.61870975  0.40937702  0.00643956  1
  Ag  Ag31  1  0.17346843  0.54666993  0.02779142  1
