# generated using pymatgen
data_Ti15WN16
_symmetry_space_group_name_H-M   'P 1'
_cell_length_a   6.01634538
_cell_length_b   6.01634538
_cell_length_c   8.50981122
_cell_angle_alpha   90.00000000
_cell_angle_beta   90.00000000
_cell_angle_gamma   90.00000000
_symmetry_Int_Tables_number   1
_chemical_formula_structural   Ti15WN16
_chemical_formula_sum   'Ti15 W1 N16'
_cell_volume   308.02463068
_cell_formula_units_Z   1
loop_
 _symmetry_equiv_pos_site_id
 _symmetry_equiv_pos_as_xyz
  1  'x, y, z'
loop_
 _atom_site_type_symbol
 _atom_site_label
 _atom_site_symmetry_multiplicity
 _atom_site_fract_x
 _atom_site_fract_y
 _atom_site_fract_z
 _atom_site_occupancy
  W  W0  1  0.25000000  0.75000000  0.75000000  1
  N  N1  1  0.75000000  0.75000000  0.50022684  1
  N  N2  1  0.75000000  0.25000000  0.49941114  1
  N  N3  1  0.25000000  0.75000000  0.49721366  1
  N  N4  1  0.25000000  0.25000000  0.50022684  1
  N  N5  1  0.50033102  0.49966898  0.25000000  1
  N  N6  1  0.50033102  0.00033102  0.25000000  1
  N  N7  1  0.75000000  0.75000000  0.99977316  1
  N  N8  1  0.75000000  0.25000000  0.00058886  1
  N  N9  1  0.99966898  0.49966898  0.25000000  1
  N  N10  1  0.99966898  0.00033102  0.25000000  1
  N  N11  1  0.25000000  0.75000000  0.00278634  1
  N  N12  1  0.25000000  0.25000000  0.99977316  1
  N  N13  1  0.50308320  0.49691680  0.75000000  1
  N  N14  1  0.50308320  0.00308320  0.75000000  1
  N  N15  1  0.99691680  0.49691680  0.75000000  1
  N  N16  1  0.99691680  0.00308320  0.75000000  1
  Ti  Ti17  1  0.75000000  0.25000000  0.75000000  1
  Ti  Ti18  1  0.75000000  0.75000000  0.75000000  1
  Ti  Ti19  1  0.25000000  0.25000000  0.75000000  1
  Ti  Ti20  1  0.50034069  0.00034069  0.49899811  1
  Ti  Ti21  1  0.50034069  0.49965931  0.49899811  1
  Ti  Ti22  1  0.75000000  0.25000000  0.25000000  1
  Ti  Ti23  1  0.75000000  0.75000000  0.25000000  1
  Ti  Ti24  1  0.99965931  0.00034069  0.49899811  1
  Ti  Ti25  1  0.99965931  0.49965931  0.49899811  1
  Ti  Ti26  1  0.25000000  0.25000000  0.25000000  1
  Ti  Ti27  1  0.25000000  0.75000000  0.25000000  1
  Ti  Ti28  1  0.50034069  0.00034069  0.00100189  1
  Ti  Ti29  1  0.50034069  0.49965931  0.00100189  1
  Ti  Ti30  1  0.99965931  0.00034069  0.00100189  1
  Ti  Ti31  1  0.99965931  0.49965931  0.00100189  1
