# generated using pymatgen
data_HfTaTiNbVC5
_symmetry_space_group_name_H-M   'P 1'
_cell_length_a   7.05750000
_cell_length_b   4.49950000
_cell_length_c   7.06050000
_cell_angle_alpha   90.00000000
_cell_angle_beta   90.00000000
_cell_angle_gamma   90.00000000
_symmetry_Int_Tables_number   1
_chemical_formula_structural   HfTaTiNbVC5
_chemical_formula_sum   'Hf2 Ta2 Ti2 Nb2 V2 C10'
_cell_volume   224.20773964
_cell_formula_units_Z   2
loop_
 _symmetry_equiv_pos_site_id
 _symmetry_equiv_pos_as_xyz
  1  'x, y, z'
loop_
 _atom_site_type_symbol
 _atom_site_label
 _atom_site_symmetry_multiplicity
 _atom_site_fract_x
 _atom_site_fract_y
 _atom_site_fract_z
 _atom_site_occupancy
  C  C0  1  0.70647643  0.00000000  0.90917313  1
  C  C1  1  0.49571483  0.00000000  0.49674878  1
  C  C2  1  0.60103593  0.50000000  0.18732457  1
  C  C3  1  0.89870532  0.00000000  0.28872629  1
  C  C4  1  0.99698938  0.50000000  0.00041209  1
  C  C5  1  0.29804454  0.00000000  0.10070676  1
  C  C6  1  0.40407006  0.50000000  0.81018196  1
  C  C7  1  0.80475610  0.50000000  0.60539821  1
  C  C8  1  0.10191690  0.00000000  0.70718939  1
  C  C9  1  0.19687123  0.50000000  0.39378602  1
  Hf  Hf10  1  0.49942689  0.50000000  0.49789150  1
  Hf  Hf11  1  0.80051725  0.00000000  0.60241193  1
  Nb  Nb12  1  0.40180163  0.00000000  0.81172432  1
  Nb  Nb13  1  0.09740297  0.50000000  0.71224559  1
  Ta  Ta14  1  0.20030084  0.00000000  0.39059124  1
  Ta  Ta15  1  0.90045953  0.50000000  0.28799261  1
  Ti  Ti16  1  0.30425441  0.50000000  0.09804654  1
  Ti  Ti17  1  0.60460034  0.00000000  0.19555362  1
  V  V18  1  0.69619141  0.50000000  0.90618850  1
  V  V19  1  0.99046402  0.00000000  0.99772693  1
