# generated using pymatgen
data_TaTi15N16
_symmetry_space_group_name_H-M   'P 1'
_cell_length_a   6.02781648
_cell_length_b   6.02781648
_cell_length_c   8.52548194
_cell_angle_alpha   90.00000000
_cell_angle_beta   90.00000000
_cell_angle_gamma   90.00000000
_symmetry_Int_Tables_number   1
_chemical_formula_structural   TaTi15N16
_chemical_formula_sum   'Ta1 Ti15 N16'
_cell_volume   309.76973326
_cell_formula_units_Z   1
loop_
 _symmetry_equiv_pos_site_id
 _symmetry_equiv_pos_as_xyz
  1  'x, y, z'
loop_
 _atom_site_type_symbol
 _atom_site_label
 _atom_site_symmetry_multiplicity
 _atom_site_fract_x
 _atom_site_fract_y
 _atom_site_fract_z
 _atom_site_occupancy
  Ta  Ta0  1  0.25000000  0.75000000  0.75000000  1
  N  N1  1  0.75000000  0.75000000  0.49981141  1
  N  N2  1  0.75000000  0.25000000  0.49920966  1
  N  N3  1  0.25000000  0.75000000  0.49741160  1
  N  N4  1  0.25000000  0.25000000  0.49981141  1
  N  N5  1  0.50014553  0.49985447  0.25000000  1
  N  N6  1  0.50014553  0.00014553  0.25000000  1
  N  N7  1  0.75000000  0.75000000  0.00018859  1
  N  N8  1  0.75000000  0.25000000  0.00079034  1
  N  N9  1  0.99985447  0.49985447  0.25000000  1
  N  N10  1  0.99985447  0.00014553  0.25000000  1
  N  N11  1  0.25000000  0.75000000  0.00258840  1
  N  N12  1  0.25000000  0.25000000  0.00018859  1
  N  N13  1  0.50219158  0.49780842  0.75000000  1
  N  N14  1  0.50219158  0.00219158  0.75000000  1
  N  N15  1  0.99780842  0.49780842  0.75000000  1
  N  N16  1  0.99780842  0.00219158  0.75000000  1
  Ti  Ti17  1  0.75000000  0.25000000  0.75000000  1
  Ti  Ti18  1  0.75000000  0.75000000  0.75000000  1
  Ti  Ti19  1  0.25000000  0.25000000  0.75000000  1
  Ti  Ti20  1  0.50186620  0.00186620  0.49769677  1
  Ti  Ti21  1  0.50186620  0.49813380  0.49769677  1
  Ti  Ti22  1  0.75000000  0.25000000  0.25000000  1
  Ti  Ti23  1  0.75000000  0.75000000  0.25000000  1
  Ti  Ti24  1  0.99813380  0.00186620  0.49769677  1
  Ti  Ti25  1  0.99813380  0.49813380  0.49769677  1
  Ti  Ti26  1  0.25000000  0.25000000  0.25000000  1
  Ti  Ti27  1  0.25000000  0.75000000  0.25000000  1
  Ti  Ti28  1  0.50186620  0.00186620  0.00230323  1
  Ti  Ti29  1  0.50186620  0.49813380  0.00230323  1
  Ti  Ti30  1  0.99813380  0.00186620  0.00230323  1
  Ti  Ti31  1  0.99813380  0.49813380  0.00230323  1
