# generated using pymatgen
data_HfTaTiNbVC5
_symmetry_space_group_name_H-M   'P 1'
_cell_length_a   7.05390000
_cell_length_b   4.49590000
_cell_length_c   7.05690000
_cell_angle_alpha   90.00000000
_cell_angle_beta   90.00000000
_cell_angle_gamma   90.00000000
_symmetry_Int_Tables_number   1
_chemical_formula_structural   HfTaTiNbVC5
_chemical_formula_sum   'Hf2 Ta2 Ti2 Nb2 V2 C10'
_cell_volume   223.79990856
_cell_formula_units_Z   2
loop_
 _symmetry_equiv_pos_site_id
 _symmetry_equiv_pos_as_xyz
  1  'x, y, z'
loop_
 _atom_site_type_symbol
 _atom_site_label
 _atom_site_symmetry_multiplicity
 _atom_site_fract_x
 _atom_site_fract_y
 _atom_site_fract_z
 _atom_site_occupancy
  C  C0  1  0.70651661  0.00000000  0.90918780  1
  C  C1  1  0.49572385  0.00000000  0.49673776  1
  C  C2  1  0.60098323  0.50000000  0.18730952  1
  C  C3  1  0.89865804  0.00000000  0.28871899  1
  C  C4  1  0.99700308  0.50000000  0.00041395  1
  C  C5  1  0.29799567  0.00000000  0.10068427  1
  C  C6  1  0.40410937  0.50000000  0.81017813  1
  C  C7  1  0.80474027  0.50000000  0.60543470  1
  C  C8  1  0.10194251  0.00000000  0.70718521  1
  C  C9  1  0.19685558  0.50000000  0.39379594  1
  Hf  Hf10  1  0.49943290  0.50000000  0.49787782  1
  Hf  Hf11  1  0.80052459  0.00000000  0.60242358  1
  Nb  Nb12  1  0.40186092  0.00000000  0.81166726  1
  Nb  Nb13  1  0.09748125  0.50000000  0.71218995  1
  Ta  Ta14  1  0.20024485  0.00000000  0.39067281  1
  Ta  Ta15  1  0.90038753  0.50000000  0.28804128  1
  Ti  Ti16  1  0.30417008  0.50000000  0.09805670  1
  Ti  Ti17  1  0.60452274  0.00000000  0.19556416  1
  V  V18  1  0.69627581  0.50000000  0.90613597  1
  V  V19  1  0.99057113  0.00000000  0.99774423  1
