# generated using pymatgen
data_ZrTi15N16
_symmetry_space_group_name_H-M   'P 1'
_cell_length_a   6.04728194
_cell_length_b   6.04728194
_cell_length_c   8.55815702
_cell_angle_alpha   90.00000000
_cell_angle_beta   90.00000000
_cell_angle_gamma   90.00000000
_symmetry_Int_Tables_number   1
_chemical_formula_structural   ZrTi15N16
_chemical_formula_sum   'Zr1 Ti15 N16'
_cell_volume   312.96854038
_cell_formula_units_Z   1
loop_
 _symmetry_equiv_pos_site_id
 _symmetry_equiv_pos_as_xyz
  1  'x, y, z'
loop_
 _atom_site_type_symbol
 _atom_site_label
 _atom_site_symmetry_multiplicity
 _atom_site_fract_x
 _atom_site_fract_y
 _atom_site_fract_z
 _atom_site_occupancy
  Zr  Zr0  1  0.25000000  0.75000000  0.75000000  1
  N  N1  1  0.75000000  0.75000000  0.49916874  1
  N  N2  1  0.75000000  0.25000000  0.49917900  1
  N  N3  1  0.25000000  0.75000000  0.49308324  1
  N  N4  1  0.25000000  0.25000000  0.49916874  1
  N  N5  1  0.50011347  0.49988653  0.25000000  1
  N  N6  1  0.50011347  0.00011347  0.25000000  1
  N  N7  1  0.75000000  0.75000000  0.00083126  1
  N  N8  1  0.75000000  0.25000000  0.00082100  1
  N  N9  1  0.99988653  0.49988653  0.25000000  1
  N  N10  1  0.99988653  0.00011347  0.25000000  1
  N  N11  1  0.25000000  0.75000000  0.00691676  1
  N  N12  1  0.25000000  0.25000000  0.00083126  1
  N  N13  1  0.50639792  0.49360208  0.75000000  1
  N  N14  1  0.50639792  0.00639792  0.75000000  1
  N  N15  1  0.99360208  0.49360208  0.75000000  1
  N  N16  1  0.99360208  0.00639792  0.75000000  1
  Ti  Ti17  1  0.75000000  0.25000000  0.75000000  1
  Ti  Ti18  1  0.75000000  0.75000000  0.75000000  1
  Ti  Ti19  1  0.25000000  0.25000000  0.75000000  1
  Ti  Ti20  1  0.50278885  0.00278885  0.49693986  1
  Ti  Ti21  1  0.50278885  0.49721115  0.49693986  1
  Ti  Ti22  1  0.75000000  0.25000000  0.25000000  1
  Ti  Ti23  1  0.75000000  0.75000000  0.25000000  1
  Ti  Ti24  1  0.99721115  0.00278885  0.49693986  1
  Ti  Ti25  1  0.99721115  0.49721115  0.49693986  1
  Ti  Ti26  1  0.25000000  0.25000000  0.25000000  1
  Ti  Ti27  1  0.25000000  0.75000000  0.25000000  1
  Ti  Ti28  1  0.50278885  0.00278885  0.00306014  1
  Ti  Ti29  1  0.50278885  0.49721115  0.00306014  1
  Ti  Ti30  1  0.99721115  0.00278885  0.00306014  1
  Ti  Ti31  1  0.99721115  0.49721115  0.00306014  1
