# generated using pymatgen
data_TaTiNbPdN4
_symmetry_space_group_name_H-M   'P 1'
_cell_length_a   6.04831190
_cell_length_b   6.16095414
_cell_length_c   10.11391327
_cell_angle_alpha   87.88855460
_cell_angle_beta   87.95731935
_cell_angle_gamma   89.59901731
_symmetry_Int_Tables_number   1
_chemical_formula_structural   TaTiNbPdN4
_chemical_formula_sum   'Ta4 Ti4 Nb4 Pd4 N16'
_cell_volume   376.37721220
_cell_formula_units_Z   4
loop_
 _symmetry_equiv_pos_site_id
 _symmetry_equiv_pos_as_xyz
  1  'x, y, z'
loop_
 _atom_site_type_symbol
 _atom_site_label
 _atom_site_symmetry_multiplicity
 _atom_site_fract_x
 _atom_site_fract_y
 _atom_site_fract_z
 _atom_site_occupancy
  N  N0  1  0.74494541  0.73761042  0.50701378  1
  N  N1  1  0.74825177  0.23845999  0.49893315  1
  N  N2  1  0.25955143  0.74149402  0.50004658  1
  N  N3  1  0.25259248  0.23696169  0.49473689  1
  N  N4  1  0.50341839  0.47972214  0.29010929  1
  N  N5  1  0.49400410  0.01898301  0.29921329  1
  N  N6  1  0.66403681  0.70759725  0.92551382  1
  N  N7  1  0.75327553  0.17188572  0.92676999  1
  N  N8  1  0.02170079  0.47911805  0.28110956  1
  N  N9  1  0.02537490  0.02352517  0.26671677  1
  N  N10  1  0.16677541  0.81429217  0.91827142  1
  N  N11  1  0.29429056  0.18139535  0.04712341  1
  N  N12  1  0.50315774  0.47471401  0.70688539  1
  N  N13  1  0.49695123  0.97911657  0.72329174  1
  N  N14  1  0.98660405  0.47999776  0.71344117  1
  N  N15  1  0.97298075  0.96894500  0.69657954  1
  Nb  Nb16  1  0.22463627  0.74127687  0.71915718  1
  Nb  Nb17  1  0.00509822  0.99058053  0.48946897  1
  Nb  Nb18  1  0.00755753  0.48953837  0.49195829  1
  Nb  Nb19  1  0.27302579  0.76787957  0.29263065  1
  Ta  Ta20  1  0.75445688  0.22361285  0.73620641  1
  Ta  Ta21  1  0.73231163  0.71526328  0.74045518  1
  Ta  Ta22  1  0.49511710  0.48269748  0.49872589  1
  Ta  Ta23  1  0.00506357  0.03449460  0.02177729  1
  Ti  Ti24  1  0.49598400  0.99171484  0.50531579  1
  Ti  Ti25  1  0.77052104  0.26076777  0.29595717  1
  Ti  Ti26  1  0.27309646  0.25417214  0.23871580  1
  Ti  Ti27  1  0.47388775  0.96361917  0.93121621  1
  Pd  Pd28  1  0.22567573  0.34924875  0.87048306  1
  Pd  Pd29  1  0.74833569  0.85455328  0.20029125  1
  Pd  Pd30  1  0.55550473  0.54666997  0.08996252  1
  Pd  Pd31  1  0.07181624  0.60009218  0.08192255  1
