# generated using pymatgen
data_HfTaTiNbVC5
_symmetry_space_group_name_H-M   'P 1'
_cell_length_a   7.05570000
_cell_length_b   4.49770000
_cell_length_c   7.05870000
_cell_angle_alpha   90.00000000
_cell_angle_beta   90.00000000
_cell_angle_gamma   90.00000000
_symmetry_Int_Tables_number   1
_chemical_formula_structural   HfTaTiNbVC5
_chemical_formula_sum   'Hf2 Ta2 Ti2 Nb2 V2 C10'
_cell_volume   224.00376379
_cell_formula_units_Z   2
loop_
 _symmetry_equiv_pos_site_id
 _symmetry_equiv_pos_as_xyz
  1  'x, y, z'
loop_
 _atom_site_type_symbol
 _atom_site_label
 _atom_site_symmetry_multiplicity
 _atom_site_fract_x
 _atom_site_fract_y
 _atom_site_fract_z
 _atom_site_occupancy
  C  C0  1  0.70649399  0.00000000  0.90918194  1
  C  C1  1  0.49572254  0.00000000  0.49674311  1
  C  C2  1  0.60101803  0.50000000  0.18731955  1
  C  C3  1  0.89868831  0.00000000  0.28872672  1
  C  C4  1  0.99699605  0.50000000  0.00041369  1
  C  C5  1  0.29802961  0.00000000  0.10069477  1
  C  C6  1  0.40408018  0.50000000  0.81017668  1
  C  C7  1  0.80474495  0.50000000  0.60541683  1
  C  C8  1  0.10192262  0.00000000  0.70718998  1
  C  C9  1  0.19686627  0.50000000  0.39378841  1
  Hf  Hf10  1  0.49942772  0.50000000  0.49788946  1
  Hf  Hf11  1  0.80051463  0.00000000  0.60241458  1
  Nb  Nb12  1  0.40182668  0.00000000  0.81169973  1
  Nb  Nb13  1  0.09742944  0.50000000  0.71221689  1
  Ta  Ta14  1  0.20027709  0.00000000  0.39062626  1
  Ta  Ta15  1  0.90043341  0.50000000  0.28801878  1
  Ti  Ti16  1  0.30422225  0.50000000  0.09805409  1
  Ti  Ti17  1  0.60457229  0.00000000  0.19555668  1
  V  V18  1  0.69623513  0.50000000  0.90616526  1
  V  V19  1  0.99049881  0.00000000  0.99772659  1
