# generated using pymatgen
data_HfTaTiNbVC5
_symmetry_space_group_name_H-M   'P 1'
_cell_length_a   7.04130000
_cell_length_b   4.48330000
_cell_length_c   7.04430000
_cell_angle_alpha   90.00000000
_cell_angle_beta   90.00000000
_cell_angle_gamma   90.00000000
_symmetry_Int_Tables_number   1
_chemical_formula_structural   HfTaTiNbVC5
_chemical_formula_sum   'Hf2 Ta2 Ti2 Nb2 V2 C10'
_cell_volume   222.37629596
_cell_formula_units_Z   2
loop_
 _symmetry_equiv_pos_site_id
 _symmetry_equiv_pos_as_xyz
  1  'x, y, z'
loop_
 _atom_site_type_symbol
 _atom_site_label
 _atom_site_symmetry_multiplicity
 _atom_site_fract_x
 _atom_site_fract_y
 _atom_site_fract_z
 _atom_site_occupancy
  C  C0  1  0.70661281  0.00000000  0.90926375  1
  C  C1  1  0.49577482  0.00000000  0.49678984  1
  C  C2  1  0.60074100  0.50000000  0.18723978  1
  C  C3  1  0.89847274  0.00000000  0.28870673  1
  C  C4  1  0.99711633  0.50000000  0.00042363  1
  C  C5  1  0.29781235  0.00000000  0.10057412  1
  C  C6  1  0.40439052  0.50000000  0.81015534  1
  C  C7  1  0.80470252  0.50000000  0.60541838  1
  C  C8  1  0.10203375  0.00000000  0.70717593  1
  C  C9  1  0.19679204  0.50000000  0.39389552  1
  Hf  Hf10  1  0.49945033  0.50000000  0.49778857  1
  Hf  Hf11  1  0.80061940  0.00000000  0.60247048  1
  Nb  Nb12  1  0.40201096  0.00000000  0.81145060  1
  Nb  Nb13  1  0.09787177  0.50000000  0.71202302  1
  Ta  Ta14  1  0.19992779  0.00000000  0.39104903  1
  Ta  Ta15  1  0.90012727  0.50000000  0.28822007  1
  Ti  Ti16  1  0.30390869  0.50000000  0.09808473  1
  Ti  Ti17  1  0.60415175  0.00000000  0.19542996  1
  V  V18  1  0.69625920  0.50000000  0.90593131  1
  V  V19  1  0.99122398  0.00000000  0.99792923  1
