# generated using pymatgen
data_HfTaTiNbVC5
_symmetry_space_group_name_H-M   'P 1'
_cell_length_a   7.05210000
_cell_length_b   4.49410000
_cell_length_c   7.05510000
_cell_angle_alpha   90.00000000
_cell_angle_beta   90.00000000
_cell_angle_gamma   90.00000000
_symmetry_Int_Tables_number   1
_chemical_formula_structural   HfTaTiNbVC5
_chemical_formula_sum   'Hf2 Ta2 Ti2 Nb2 V2 C10'
_cell_volume   223.59617390
_cell_formula_units_Z   2
loop_
 _symmetry_equiv_pos_site_id
 _symmetry_equiv_pos_as_xyz
  1  'x, y, z'
loop_
 _atom_site_type_symbol
 _atom_site_label
 _atom_site_symmetry_multiplicity
 _atom_site_fract_x
 _atom_site_fract_y
 _atom_site_fract_z
 _atom_site_occupancy
  C  C0  1  0.70653142  0.00000000  0.90919797  1
  C  C1  1  0.49573078  0.00000000  0.49673625  1
  C  C2  1  0.60095870  0.50000000  0.18730388  1
  C  C3  1  0.89863914  0.00000000  0.28871821  1
  C  C4  1  0.99701182  0.50000000  0.00041037  1
  C  C5  1  0.29797505  0.00000000  0.10067618  1
  C  C6  1  0.40412970  0.50000000  0.81017653  1
  C  C7  1  0.80473427  0.50000000  0.60544360  1
  C  C8  1  0.10195476  0.00000000  0.70718777  1
  C  C9  1  0.19684876  0.50000000  0.39380485  1
  Hf  Hf10  1  0.49943712  0.50000000  0.49787248  1
  Hf  Hf11  1  0.80053003  0.00000000  0.60242718  1
  Nb  Nb12  1  0.40188567  0.00000000  0.81164272  1
  Nb  Nb13  1  0.09752145  0.50000000  0.71216517  1
  Ta  Ta14  1  0.20021980  0.00000000  0.39070709  1
  Ta  Ta15  1  0.90035821  0.50000000  0.28806608  1
  Ti  Ti16  1  0.30413683  0.50000000  0.09806065  1
  Ti  Ti17  1  0.60448473  0.00000000  0.19555792  1
  V  V18  1  0.69629661  0.50000000  0.90611209  1
  V  V19  1  0.99061514  0.00000000  0.99775299  1
