# generated using pymatgen
data_HfTaTiNbVC5
_symmetry_space_group_name_H-M   'P 1'
_cell_length_a   7.04850000
_cell_length_b   4.49050000
_cell_length_c   7.05150000
_cell_angle_alpha   90.00000000
_cell_angle_beta   90.00000000
_cell_angle_gamma   90.00000000
_symmetry_Int_Tables_number   1
_chemical_formula_structural   HfTaTiNbVC5
_chemical_formula_sum   'Hf2 Ta2 Ti2 Nb2 V2 C10'
_cell_volume   223.18906615
_cell_formula_units_Z   2
loop_
 _symmetry_equiv_pos_site_id
 _symmetry_equiv_pos_as_xyz
  1  'x, y, z'
loop_
 _atom_site_type_symbol
 _atom_site_label
 _atom_site_symmetry_multiplicity
 _atom_site_fract_x
 _atom_site_fract_y
 _atom_site_fract_z
 _atom_site_occupancy
  C  C0  1  0.70658839  0.00000000  0.90923530  1
  C  C1  1  0.49574042  0.00000000  0.49674038  1
  C  C2  1  0.60087221  0.50000000  0.18727419  1
  C  C3  1  0.89856563  0.00000000  0.28870921  1
  C  C4  1  0.99705580  0.50000000  0.00041439  1
  C  C5  1  0.29790273  0.00000000  0.10064363  1
  C  C6  1  0.40421097  0.50000000  0.81016758  1
  C  C7  1  0.80469578  0.50000000  0.60546968  1
  C  C8  1  0.10199125  0.00000000  0.70718727  1
  C  C9  1  0.19681892  0.50000000  0.39382402  1
  Hf  Hf10  1  0.49943378  0.50000000  0.49784934  1
  Hf  Hf11  1  0.80053038  0.00000000  0.60246260  1
  Nb  Nb12  1  0.40195876  0.00000000  0.81155943  1
  Nb  Nb13  1  0.09763969  0.50000000  0.71210992  1
  Ta  Ta14  1  0.20011694  0.00000000  0.39082151  1
  Ta  Ta15  1  0.90025382  0.50000000  0.28813604  1
  Ti  Ti16  1  0.30403113  0.50000000  0.09806689  1
  Ti  Ti17  1  0.60436502  0.00000000  0.19551900  1
  V  V18  1  0.69636624  0.50000000  0.90601768  1
  V  V19  1  0.99086214  0.00000000  0.99781194  1
