# generated using pymatgen
data_HfTaTiNbVC5
_symmetry_space_group_name_H-M   'P 1'
_cell_length_a   7.03590000
_cell_length_b   4.47790000
_cell_length_c   7.03890000
_cell_angle_alpha   90.00000000
_cell_angle_beta   90.00000000
_cell_angle_gamma   90.00000000
_symmetry_Int_Tables_number   1
_chemical_formula_structural   HfTaTiNbVC5
_chemical_formula_sum   'Hf2 Ta2 Ti2 Nb2 V2 C10'
_cell_volume   221.76798187
_cell_formula_units_Z   2
loop_
 _symmetry_equiv_pos_site_id
 _symmetry_equiv_pos_as_xyz
  1  'x, y, z'
loop_
 _atom_site_type_symbol
 _atom_site_label
 _atom_site_symmetry_multiplicity
 _atom_site_fract_x
 _atom_site_fract_y
 _atom_site_fract_z
 _atom_site_occupancy
  C  C0  1  0.70673150  0.00000000  0.90925596  1
  C  C1  1  0.49574595  0.00000000  0.49674109  1
  C  C2  1  0.60063918  0.50000000  0.18718833  1
  C  C3  1  0.89836341  0.00000000  0.28872043  1
  C  C4  1  0.99712757  0.50000000  0.00040792  1
  C  C5  1  0.29768350  0.00000000  0.10062510  1
  C  C6  1  0.40443580  0.50000000  0.81014631  1
  C  C7  1  0.80467265  0.50000000  0.60552009  1
  C  C8  1  0.10215074  0.00000000  0.70719340  1
  C  C9  1  0.19670730  0.50000000  0.39390369  1
  Hf  Hf10  1  0.49944005  0.50000000  0.49777042  1
  Hf  Hf11  1  0.80058935  0.00000000  0.60250481  1
  Nb  Nb12  1  0.40214897  0.00000000  0.81135100  1
  Nb  Nb13  1  0.09797568  0.50000000  0.71192620  1
  Ta  Ta14  1  0.19988102  0.00000000  0.39116275  1
  Ta  Ta15  1  0.89996155  0.50000000  0.28830657  1
  Ti  Ti16  1  0.30369623  0.50000000  0.09810173  1
  Ti  Ti17  1  0.60402796  0.00000000  0.19546893  1
  V  V18  1  0.69658317  0.50000000  0.90579932  1
  V  V19  1  0.99143842  0.00000000  0.99792596  1
