# generated using pymatgen
data_HfTaTiNbVC5
_symmetry_space_group_name_H-M   'P 1'
_cell_length_a   7.03770000
_cell_length_b   4.47970000
_cell_length_c   7.04070000
_cell_angle_alpha   90.00000000
_cell_angle_beta   90.00000000
_cell_angle_gamma   90.00000000
_symmetry_Int_Tables_number   1
_chemical_formula_structural   HfTaTiNbVC5
_chemical_formula_sum   'Hf2 Ta2 Ti2 Nb2 V2 C10'
_cell_volume   221.97063297
_cell_formula_units_Z   2
loop_
 _symmetry_equiv_pos_site_id
 _symmetry_equiv_pos_as_xyz
  1  'x, y, z'
loop_
 _atom_site_type_symbol
 _atom_site_label
 _atom_site_symmetry_multiplicity
 _atom_site_fract_x
 _atom_site_fract_y
 _atom_site_fract_z
 _atom_site_occupancy
  C  C0  1  0.70664920  0.00000000  0.90927366  1
  C  C1  1  0.49578057  0.00000000  0.49678227  1
  C  C2  1  0.60068571  0.50000000  0.18722591  1
  C  C3  1  0.89842494  0.00000000  0.28870334  1
  C  C4  1  0.99713959  0.50000000  0.00042319  1
  C  C5  1  0.29776631  0.00000000  0.10056161  1
  C  C6  1  0.40443854  0.50000000  0.81014794  1
  C  C7  1  0.80469320  0.50000000  0.60543915  1
  C  C8  1  0.10206377  0.00000000  0.70717601  1
  C  C9  1  0.19677283  0.50000000  0.39391187  1
  Hf  Hf10  1  0.49945238  0.50000000  0.49777316  1
  Hf  Hf11  1  0.80062778  0.00000000  0.60247576  1
  Nb  Nb12  1  0.40205815  0.00000000  0.81140629  1
  Nb  Nb13  1  0.09795157  0.50000000  0.71197863  1
  Ta  Ta14  1  0.19987106  0.00000000  0.39112319  1
  Ta  Ta15  1  0.90006171  0.50000000  0.28826271  1
  Ti  Ti16  1  0.30384124  0.50000000  0.09809471  1
  Ti  Ti17  1  0.60408401  0.00000000  0.19542844  1
  V  V18  1  0.69630433  0.50000000  0.90587701  1
  V  V19  1  0.99133313  0.00000000  0.99795514  1
