# generated using pymatgen
data_HfTaTiNbVC5
_symmetry_space_group_name_H-M   'P 1'
_cell_length_a   7.05030000
_cell_length_b   4.49230000
_cell_length_c   7.05330000
_cell_angle_alpha   90.00000000
_cell_angle_beta   90.00000000
_cell_angle_gamma   90.00000000
_symmetry_Int_Tables_number   1
_chemical_formula_structural   HfTaTiNbVC5
_chemical_formula_sum   'Hf2 Ta2 Ti2 Nb2 V2 C10'
_cell_volume   223.39255977
_cell_formula_units_Z   2
loop_
 _symmetry_equiv_pos_site_id
 _symmetry_equiv_pos_as_xyz
  1  'x, y, z'
loop_
 _atom_site_type_symbol
 _atom_site_label
 _atom_site_symmetry_multiplicity
 _atom_site_fract_x
 _atom_site_fract_y
 _atom_site_fract_z
 _atom_site_occupancy
  C  C0  1  0.70657045  0.00000000  0.90921394  1
  C  C1  1  0.49574039  0.00000000  0.49674155  1
  C  C2  1  0.60090737  0.50000000  0.18727849  1
  C  C3  1  0.89859740  0.00000000  0.28870797  1
  C  C4  1  0.99703872  0.50000000  0.00041676  1
  C  C5  1  0.29792599  0.00000000  0.10065072  1
  C  C6  1  0.40417578  0.50000000  0.81017440  1
  C  C7  1  0.80470373  0.50000000  0.60545528  1
  C  C8  1  0.10196914  0.00000000  0.70718484  1
  C  C9  1  0.19683482  0.50000000  0.39381972  1
  Hf  Hf10  1  0.49943727  0.50000000  0.49785585  1
  Hf  Hf11  1  0.80052625  0.00000000  0.60245657  1
  Nb  Nb12  1  0.40192401  0.00000000  0.81159931  1
  Nb  Nb13  1  0.09759175  0.50000000  0.71213561  1
  Ta  Ta14  1  0.20015921  0.00000000  0.39078320  1
  Ta  Ta15  1  0.90029266  0.50000000  0.28811800  1
  Ti  Ti16  1  0.30406468  0.50000000  0.09805702  1
  Ti  Ti17  1  0.60441207  0.00000000  0.19552926  1
  V  V18  1  0.69633861  0.50000000  0.90605054  1
  V  V19  1  0.99078969  0.00000000  0.99779098  1
