# generated using pymatgen
data_HfTaTiNbVC5
_symmetry_space_group_name_H-M   'P 1'
_cell_length_a   7.02510000
_cell_length_b   4.46710000
_cell_length_c   7.02810000
_cell_angle_alpha   90.00000000
_cell_angle_beta   90.00000000
_cell_angle_gamma   90.00000000
_symmetry_Int_Tables_number   1
_chemical_formula_structural   HfTaTiNbVC5
_chemical_formula_sum   'Hf2 Ta2 Ti2 Nb2 V2 C10'
_cell_volume   220.55459873
_cell_formula_units_Z   2
loop_
 _symmetry_equiv_pos_site_id
 _symmetry_equiv_pos_as_xyz
  1  'x, y, z'
loop_
 _atom_site_type_symbol
 _atom_site_label
 _atom_site_symmetry_multiplicity
 _atom_site_fract_x
 _atom_site_fract_y
 _atom_site_fract_z
 _atom_site_occupancy
  C  C0  1  0.70681817  0.00000000  0.90928344  1
  C  C1  1  0.49578950  0.00000000  0.49671798  1
  C  C2  1  0.60051748  0.50000000  0.18714991  1
  C  C3  1  0.89825812  0.00000000  0.28869773  1
  C  C4  1  0.99716375  0.50000000  0.00039710  1
  C  C5  1  0.29760692  0.00000000  0.10058787  1
  C  C6  1  0.40454171  0.50000000  0.81014215  1
  C  C7  1  0.80461259  0.50000000  0.60559722  1
  C  C8  1  0.10217898  0.00000000  0.70721975  1
  C  C9  1  0.19669406  0.50000000  0.39393003  1
  Hf  Hf10  1  0.49945007  0.50000000  0.49774080  1
  Hf  Hf11  1  0.80058823  0.00000000  0.60251321  1
  Nb  Nb12  1  0.40228599  0.00000000  0.81125159  1
  Nb  Nb13  1  0.09816874  0.50000000  0.71181306  1
  Ta  Ta14  1  0.19974364  0.00000000  0.39134561  1
  Ta  Ta15  1  0.89981400  0.50000000  0.28844036  1
  Ti  Ti16  1  0.30356317  0.50000000  0.09813424  1
  Ti  Ti17  1  0.60385513  0.00000000  0.19547197  1
  V  V18  1  0.69670255  0.50000000  0.90564307  1
  V  V19  1  0.99164718  0.00000000  0.99794288  1
