# generated using pymatgen
data_HfTaTiNbVC5
_symmetry_space_group_name_H-M   'P 1'
_cell_length_a   7.03410000
_cell_length_b   4.47610000
_cell_length_c   7.03710000
_cell_angle_alpha   90.00000000
_cell_angle_beta   90.00000000
_cell_angle_gamma   90.00000000
_symmetry_Int_Tables_number   1
_chemical_formula_structural   HfTaTiNbVC5
_chemical_formula_sum   'Hf2 Ta2 Ti2 Nb2 V2 C10'
_cell_volume   221.56545100
_cell_formula_units_Z   2
loop_
 _symmetry_equiv_pos_site_id
 _symmetry_equiv_pos_as_xyz
  1  'x, y, z'
loop_
 _atom_site_type_symbol
 _atom_site_label
 _atom_site_symmetry_multiplicity
 _atom_site_fract_x
 _atom_site_fract_y
 _atom_site_fract_z
 _atom_site_occupancy
  C  C0  1  0.70669366  0.00000000  0.90927354  1
  C  C1  1  0.49576270  0.00000000  0.49678655  1
  C  C2  1  0.60063244  0.50000000  0.18718996  1
  C  C3  1  0.89836386  0.00000000  0.28871803  1
  C  C4  1  0.99715952  0.50000000  0.00043431  1
  C  C5  1  0.29770551  0.00000000  0.10056262  1
  C  C6  1  0.40450180  0.50000000  0.81014577  1
  C  C7  1  0.80469142  0.50000000  0.60545641  1
  C  C8  1  0.10211278  0.00000000  0.70716783  1
  C  C9  1  0.19674177  0.50000000  0.39392350  1
  Hf  Hf10  1  0.49944171  0.50000000  0.49774886  1
  Hf  Hf11  1  0.80064931  0.00000000  0.60249625  1
  Nb  Nb12  1  0.40209287  0.00000000  0.81135057  1
  Nb  Nb13  1  0.09803754  0.50000000  0.71194625  1
  Ta  Ta14  1  0.19980640  0.00000000  0.39120750  1
  Ta  Ta15  1  0.89999062  0.50000000  0.28829201  1
  Ti  Ti16  1  0.30374741  0.50000000  0.09810104  1
  Ti  Ti17  1  0.60399657  0.00000000  0.19540574  1
  V  V18  1  0.69635973  0.50000000  0.90582150  1
  V  V19  1  0.99151237  0.00000000  0.99799175  1
