# generated using pymatgen
data_HfTaTiNbVC5
_symmetry_space_group_name_H-M   'P 1'
_cell_length_a   7.02870000
_cell_length_b   4.47070000
_cell_length_c   7.03170000
_cell_angle_alpha   90.00000000
_cell_angle_beta   90.00000000
_cell_angle_gamma   90.00000000
_symmetry_Int_Tables_number   1
_chemical_formula_structural   HfTaTiNbVC5
_chemical_formula_sum   'Hf2 Ta2 Ti2 Nb2 V2 C10'
_cell_volume   220.95857936
_cell_formula_units_Z   2
loop_
 _symmetry_equiv_pos_site_id
 _symmetry_equiv_pos_as_xyz
  1  'x, y, z'
loop_
 _atom_site_type_symbol
 _atom_site_label
 _atom_site_symmetry_multiplicity
 _atom_site_fract_x
 _atom_site_fract_y
 _atom_site_fract_z
 _atom_site_occupancy
  C  C0  1  0.70678946  0.00000000  0.90927064  1
  C  C1  1  0.49577618  0.00000000  0.49672400  1
  C  C2  1  0.60055501  0.50000000  0.18716097  1
  C  C3  1  0.89828871  0.00000000  0.28870360  1
  C  C4  1  0.99715154  0.50000000  0.00040207  1
  C  C5  1  0.29762894  0.00000000  0.10059962  1
  C  C6  1  0.40450502  0.50000000  0.81014116  1
  C  C7  1  0.80463256  0.50000000  0.60557385  1
  C  C8  1  0.10217077  0.00000000  0.70720897  1
  C  C9  1  0.19670030  0.50000000  0.39392226  1
  Hf  Hf10  1  0.49944737  0.50000000  0.49774927  1
  Hf  Hf11  1  0.80059071  0.00000000  0.60251186  1
  Nb  Nb12  1  0.40224250  0.00000000  0.81128197  1
  Nb  Nb13  1  0.09811180  0.50000000  0.71185086  1
  Ta  Ta14  1  0.19978690  0.00000000  0.39128754  1
  Ta  Ta15  1  0.89985761  0.50000000  0.28839805  1
  Ti  Ti16  1  0.30359677  0.50000000  0.09812041  1
  Ti  Ti17  1  0.60391190  0.00000000  0.19547885  1
  V  V18  1  0.69667177  0.50000000  0.90569307  1
  V  V19  1  0.99158420  0.00000000  0.99794097  1
