# generated using pymatgen
data_HfTaTiNbVC5
_symmetry_space_group_name_H-M   'P 1'
_cell_length_a   7.03230000
_cell_length_b   4.47430000
_cell_length_c   7.03530000
_cell_angle_alpha   90.00000000
_cell_angle_beta   90.00000000
_cell_angle_gamma   90.00000000
_symmetry_Int_Tables_number   1
_chemical_formula_structural   HfTaTiNbVC5
_chemical_formula_sum   'Hf2 Ta2 Ti2 Nb2 V2 C10'
_cell_volume   221.36304031
_cell_formula_units_Z   2
loop_
 _symmetry_equiv_pos_site_id
 _symmetry_equiv_pos_as_xyz
  1  'x, y, z'
loop_
 _atom_site_type_symbol
 _atom_site_label
 _atom_site_symmetry_multiplicity
 _atom_site_fract_x
 _atom_site_fract_y
 _atom_site_fract_z
 _atom_site_occupancy
  C  C0  1  0.70676170  0.00000000  0.90926630  1
  C  C1  1  0.49576390  0.00000000  0.49673124  1
  C  C2  1  0.60059751  0.50000000  0.18717495  1
  C  C3  1  0.89832616  0.00000000  0.28871578  1
  C  C4  1  0.99713507  0.50000000  0.00040564  1
  C  C5  1  0.29765448  0.00000000  0.10060688  1
  C  C6  1  0.40447060  0.50000000  0.81013845  1
  C  C7  1  0.80465303  0.50000000  0.60555180  1
  C  C8  1  0.10215909  0.00000000  0.70719975  1
  C  C9  1  0.19670002  0.50000000  0.39391276  1
  Hf  Hf10  1  0.49944598  0.50000000  0.49775887  1
  Hf  Hf11  1  0.80058839  0.00000000  0.60251189  1
  Nb  Nb12  1  0.40219932  0.00000000  0.81131479  1
  Nb  Nb13  1  0.09804120  0.50000000  0.71188547  1
  Ta  Ta14  1  0.19983286  0.00000000  0.39122447  1
  Ta  Ta15  1  0.89990712  0.50000000  0.28835234  1
  Ti  Ti16  1  0.30364461  0.50000000  0.09811433  1
  Ti  Ti17  1  0.60397382  0.00000000  0.19547074  1
  V  V18  1  0.69663411  0.50000000  0.90574964  1
  V  V19  1  0.99151104  0.00000000  0.99793391  1
