# generated using pymatgen
data_HfTaTiNbVC5
_symmetry_space_group_name_H-M   'P 1'
_cell_length_a   7.02690000
_cell_length_b   4.46890000
_cell_length_c   7.02990000
_cell_angle_alpha   90.00000000
_cell_angle_beta   90.00000000
_cell_angle_gamma   90.00000000
_symmetry_Int_Tables_number   1
_chemical_formula_structural   HfTaTiNbVC5
_chemical_formula_sum   'Hf2 Ta2 Ti2 Nb2 V2 C10'
_cell_volume   220.75652902
_cell_formula_units_Z   2
loop_
 _symmetry_equiv_pos_site_id
 _symmetry_equiv_pos_as_xyz
  1  'x, y, z'
loop_
 _atom_site_type_symbol
 _atom_site_label
 _atom_site_symmetry_multiplicity
 _atom_site_fract_x
 _atom_site_fract_y
 _atom_site_fract_z
 _atom_site_occupancy
  C  C0  1  0.70679055  0.00000000  0.90928782  1
  C  C1  1  0.49579843  0.00000000  0.49671640  1
  C  C2  1  0.60054486  0.50000000  0.18716882  1
  C  C3  1  0.89828306  0.00000000  0.28868519  1
  C  C4  1  0.99715292  0.50000000  0.00039744  1
  C  C5  1  0.29764413  0.00000000  0.10058302  1
  C  C6  1  0.40450846  0.50000000  0.81014460  1
  C  C7  1  0.80461496  0.50000000  0.60558801  1
  C  C8  1  0.10215328  0.00000000  0.70721503  1
  C  C9  1  0.19672042  0.50000000  0.39391942  1
  Hf  Hf10  1  0.49945307  0.50000000  0.49775534  1
  Hf  Hf11  1  0.80057872  0.00000000  0.60250705  1
  Nb  Nb12  1  0.40226236  0.00000000  0.81127835  1
  Nb  Nb13  1  0.09812452  0.50000000  0.71182521  1
  Ta  Ta14  1  0.19978049  0.00000000  0.39129390  1
  Ta  Ta15  1  0.89985950  0.50000000  0.28842539  1
  Ti  Ti16  1  0.30361543  0.50000000  0.09813013  1
  Ti  Ti17  1  0.60390259  0.00000000  0.19548968  1
  V  V18  1  0.69665838  0.50000000  0.90567777  1
  V  V19  1  0.99155389  0.00000000  0.99793147  1
