# generated using pymatgen
data_HfTaTiNbVC5
_symmetry_space_group_name_H-M   'P 1'
_cell_length_a   7.03050000
_cell_length_b   4.47250000
_cell_length_c   7.03350000
_cell_angle_alpha   90.00000000
_cell_angle_beta   90.00000000
_cell_angle_gamma   90.00000000
_symmetry_Int_Tables_number   1
_chemical_formula_structural   HfTaTiNbVC5
_chemical_formula_sum   'Hf2 Ta2 Ti2 Nb2 V2 C10'
_cell_volume   221.16074978
_cell_formula_units_Z   2
loop_
 _symmetry_equiv_pos_site_id
 _symmetry_equiv_pos_as_xyz
  1  'x, y, z'
loop_
 _atom_site_type_symbol
 _atom_site_label
 _atom_site_symmetry_multiplicity
 _atom_site_fract_x
 _atom_site_fract_y
 _atom_site_fract_z
 _atom_site_occupancy
  C  C0  1  0.70677801  0.00000000  0.90926965  1
  C  C1  1  0.49577106  0.00000000  0.49672610  1
  C  C2  1  0.60057569  0.50000000  0.18716728  1
  C  C3  1  0.89830744  0.00000000  0.28870949  1
  C  C4  1  0.99714332  0.50000000  0.00040434  1
  C  C5  1  0.29764040  0.00000000  0.10060237  1
  C  C6  1  0.40448475  0.50000000  0.81014013  1
  C  C7  1  0.80464082  0.50000000  0.60556401  1
  C  C8  1  0.10216514  0.00000000  0.70720549  1
  C  C9  1  0.19670081  0.50000000  0.39391687  1
  Hf  Hf10  1  0.49944622  0.50000000  0.49775181  1
  Hf  Hf11  1  0.80059038  0.00000000  0.60251213  1
  Nb  Nb12  1  0.40222121  0.00000000  0.81130000  1
  Nb  Nb13  1  0.09807931  0.50000000  0.71187094  1
  Ta  Ta14  1  0.19980806  0.00000000  0.39125677  1
  Ta  Ta15  1  0.89988027  0.50000000  0.28837461  1
  Ti  Ti16  1  0.30361420  0.50000000  0.09811628  1
  Ti  Ti17  1  0.60394127  0.00000000  0.19547388  1
  V  V18  1  0.69666201  0.50000000  0.90571984  1
  V  V19  1  0.99154961  0.00000000  0.99793800  1
