# generated using pymatgen
data_HfTaTiNbVC5
_symmetry_space_group_name_H-M   'P 1'
_cell_length_a   7.01310000
_cell_length_b   4.45510000
_cell_length_c   7.01610000
_cell_angle_alpha   90.00000000
_cell_angle_beta   90.00000000
_cell_angle_gamma   90.00000000
_symmetry_Int_Tables_number   1
_chemical_formula_structural   HfTaTiNbVC5
_chemical_formula_sum   'Hf2 Ta2 Ti2 Nb2 V2 C10'
_cell_volume   219.21146207
_cell_formula_units_Z   2
loop_
 _symmetry_equiv_pos_site_id
 _symmetry_equiv_pos_as_xyz
  1  'x, y, z'
loop_
 _atom_site_type_symbol
 _atom_site_label
 _atom_site_symmetry_multiplicity
 _atom_site_fract_x
 _atom_site_fract_y
 _atom_site_fract_z
 _atom_site_occupancy
  C  C0  1  0.70690708  0.00000000  0.90929883  1
  C  C1  1  0.49584169  0.00000000  0.49668771  1
  C  C2  1  0.60033847  0.50000000  0.18709603  1
  C  C3  1  0.89812108  0.00000000  0.28868160  1
  C  C4  1  0.99719845  0.50000000  0.00038852  1
  C  C5  1  0.29751296  0.00000000  0.10053816  1
  C  C6  1  0.40465945  0.50000000  0.81013520  1
  C  C7  1  0.80455547  0.50000000  0.60567544  1
  C  C8  1  0.10222029  0.00000000  0.70724556  1
  C  C9  1  0.19669187  0.50000000  0.39396212  1
  Hf  Hf10  1  0.49946917  0.50000000  0.49769486  1
  Hf  Hf11  1  0.80059151  0.00000000  0.60250432  1
  Nb  Nb12  1  0.40245055  0.00000000  0.81113447  1
  Nb  Nb13  1  0.09838875  0.50000000  0.71167656  1
  Ta  Ta14  1  0.19959250  0.00000000  0.39157954  1
  Ta  Ta15  1  0.89963853  0.50000000  0.28858909  1
  Ti  Ti16  1  0.30335752  0.50000000  0.09818200  1
  Ti  Ti17  1  0.60366095  0.00000000  0.19548577  1
  V  V18  1  0.69689511  0.50000000  0.90548572  1
  V  V19  1  0.99190860  0.00000000  0.99797847  1
