# generated using pymatgen
data_HfTaTiNbVC5
_symmetry_space_group_name_H-M   'P 1'
_cell_length_a   7.01970000
_cell_length_b   4.46170000
_cell_length_c   7.02270000
_cell_angle_alpha   90.00000000
_cell_angle_beta   90.00000000
_cell_angle_gamma   90.00000000
_symmetry_Int_Tables_number   1
_chemical_formula_structural   HfTaTiNbVC5
_chemical_formula_sum   'Hf2 Ta2 Ti2 Nb2 V2 C10'
_cell_volume   219.94952779
_cell_formula_units_Z   2
loop_
 _symmetry_equiv_pos_site_id
 _symmetry_equiv_pos_as_xyz
  1  'x, y, z'
loop_
 _atom_site_type_symbol
 _atom_site_label
 _atom_site_symmetry_multiplicity
 _atom_site_fract_x
 _atom_site_fract_y
 _atom_site_fract_z
 _atom_site_occupancy
  C  C0  1  0.70685340  0.00000000  0.90930201  1
  C  C1  1  0.49580967  0.00000000  0.49670741  1
  C  C2  1  0.60044343  0.50000000  0.18713020  1
  C  C3  1  0.89819332  0.00000000  0.28868700  1
  C  C4  1  0.99718834  0.50000000  0.00038996  1
  C  C5  1  0.29757331  0.00000000  0.10057308  1
  C  C6  1  0.40460788  0.50000000  0.81013880  1
  C  C7  1  0.80459032  0.50000000  0.60563241  1
  C  C8  1  0.10220044  0.00000000  0.70722638  1
  C  C9  1  0.19669063  0.50000000  0.39394227  1
  Hf  Hf10  1  0.49945772  0.50000000  0.49773250  1
  Hf  Hf11  1  0.80058816  0.00000000  0.60251615  1
  Nb  Nb12  1  0.40235646  0.00000000  0.81119247  1
  Nb  Nb13  1  0.09826726  0.50000000  0.71174822  1
  Ta  Ta14  1  0.19967480  0.00000000  0.39143743  1
  Ta  Ta15  1  0.89974160  0.50000000  0.28850606  1
  Ti  Ti16  1  0.30349761  0.50000000  0.09815464  1
  Ti  Ti17  1  0.60376389  0.00000000  0.19546954  1
  V  V18  1  0.69674594  0.50000000  0.90557354  1
  V  V19  1  0.99175581  0.00000000  0.99795994  1
