# generated using pymatgen
data_HfTaTiNbVC5
_symmetry_space_group_name_H-M   'P 1'
_cell_length_a   7.01630000
_cell_length_b   4.45830000
_cell_length_c   7.01930000
_cell_angle_alpha   90.00000000
_cell_angle_beta   90.00000000
_cell_angle_gamma   90.00000000
_symmetry_Int_Tables_number   1
_chemical_formula_structural   HfTaTiNbVC5
_chemical_formula_sum   'Hf2 Ta2 Ti2 Nb2 V2 C10'
_cell_volume   219.56911090
_cell_formula_units_Z   2
loop_
 _symmetry_equiv_pos_site_id
 _symmetry_equiv_pos_as_xyz
  1  'x, y, z'
loop_
 _atom_site_type_symbol
 _atom_site_label
 _atom_site_symmetry_multiplicity
 _atom_site_fract_x
 _atom_site_fract_y
 _atom_site_fract_z
 _atom_site_occupancy
  C  C0  1  0.70687475  0.00000000  0.90930773  1
  C  C1  1  0.49581877  0.00000000  0.49669793  1
  C  C2  1  0.60039639  0.50000000  0.18711513  1
  C  C3  1  0.89814870  0.00000000  0.28868082  1
  C  C4  1  0.99720620  0.50000000  0.00038842  1
  C  C5  1  0.29754784  0.00000000  0.10056207  1
  C  C6  1  0.40465090  0.50000000  0.81012784  1
  C  C7  1  0.80458197  0.50000000  0.60565377  1
  C  C8  1  0.10221846  0.00000000  0.70722918  1
  C  C9  1  0.19668362  0.50000000  0.39394901  1
  Hf  Hf10  1  0.49946416  0.50000000  0.49772163  1
  Hf  Hf11  1  0.80059232  0.00000000  0.60251460  1
  Nb  Nb12  1  0.40240089  0.00000000  0.81115432  1
  Nb  Nb13  1  0.09832977  0.50000000  0.71170995  1
  Ta  Ta14  1  0.19963338  0.00000000  0.39149140  1
  Ta  Ta15  1  0.89969572  0.50000000  0.28855273  1
  Ti  Ti16  1  0.30344795  0.50000000  0.09817481  1
  Ti  Ti17  1  0.60369839  0.00000000  0.19547619  1
  V  V18  1  0.69677081  0.50000000  0.90553284  1
  V  V19  1  0.99183902  0.00000000  0.99797964  1
