# generated using pymatgen
data_HfTaTiNbVC5
_symmetry_space_group_name_H-M   'P 1'
_cell_length_a   7.01810000
_cell_length_b   4.46010000
_cell_length_c   7.02110000
_cell_angle_alpha   90.00000000
_cell_angle_beta   90.00000000
_cell_angle_gamma   90.00000000
_symmetry_Int_Tables_number   1
_chemical_formula_structural   HfTaTiNbVC5
_chemical_formula_sum   'Hf2 Ta2 Ti2 Nb2 V2 C10'
_cell_volume   219.77045480
_cell_formula_units_Z   2
loop_
 _symmetry_equiv_pos_site_id
 _symmetry_equiv_pos_as_xyz
  1  'x, y, z'
loop_
 _atom_site_type_symbol
 _atom_site_label
 _atom_site_symmetry_multiplicity
 _atom_site_fract_x
 _atom_site_fract_y
 _atom_site_fract_z
 _atom_site_occupancy
  C  C0  1  0.70685943  0.00000000  0.90930140  1
  C  C1  1  0.49581273  0.00000000  0.49670455  1
  C  C2  1  0.60041864  0.50000000  0.18712497  1
  C  C3  1  0.89817152  0.00000000  0.28868320  1
  C  C4  1  0.99720015  0.50000000  0.00038934  1
  C  C5  1  0.29756226  0.00000000  0.10056940  1
  C  C6  1  0.40462998  0.50000000  0.81013345  1
  C  C7  1  0.80458931  0.50000000  0.60563965  1
  C  C8  1  0.10221190  0.00000000  0.70722423  1
  C  C9  1  0.19668726  0.50000000  0.39394936  1
  Hf  Hf10  1  0.49946016  0.50000000  0.49772875  1
  Hf  Hf11  1  0.80059108  0.00000000  0.60251618  1
  Nb  Nb12  1  0.40237482  0.00000000  0.81117468  1
  Nb  Nb13  1  0.09830030  0.50000000  0.71172735  1
  Ta  Ta14  1  0.19965520  0.00000000  0.39146570  1
  Ta  Ta15  1  0.89972079  0.50000000  0.28853096  1
  Ti  Ti16  1  0.30347691  0.50000000  0.09815869  1
  Ti  Ti17  1  0.60373420  0.00000000  0.19547224  1
  V  V18  1  0.69674618  0.50000000  0.90555361  1
  V  V19  1  0.99179717  0.00000000  0.99797232  1
