# generated using pymatgen
data_HfTaTiNbVC5
_symmetry_space_group_name_H-M   'P 1'
_cell_length_a   7.01450000
_cell_length_b   4.45650000
_cell_length_c   7.01750000
_cell_angle_alpha   90.00000000
_cell_angle_beta   90.00000000
_cell_angle_gamma   90.00000000
_symmetry_Int_Tables_number   1
_chemical_formula_structural   HfTaTiNbVC5
_chemical_formula_sum   'Hf2 Ta2 Ti2 Nb2 V2 C10'
_cell_volume   219.36788684
_cell_formula_units_Z   2
loop_
 _symmetry_equiv_pos_site_id
 _symmetry_equiv_pos_as_xyz
  1  'x, y, z'
loop_
 _atom_site_type_symbol
 _atom_site_label
 _atom_site_symmetry_multiplicity
 _atom_site_fract_x
 _atom_site_fract_y
 _atom_site_fract_z
 _atom_site_occupancy
  C  C0  1  0.70689223  0.00000000  0.90931736  1
  C  C1  1  0.49582680  0.00000000  0.49669333  1
  C  C2  1  0.60037547  0.50000000  0.18711234  1
  C  C3  1  0.89813329  0.00000000  0.28867734  1
  C  C4  1  0.99720896  0.50000000  0.00038654  1
  C  C5  1  0.29753524  0.00000000  0.10054955  1
  C  C6  1  0.40466337  0.50000000  0.81013196  1
  C  C7  1  0.80457034  0.50000000  0.60567384  1
  C  C8  1  0.10221870  0.00000000  0.70723919  1
  C  C9  1  0.19667792  0.50000000  0.39395313  1
  Hf  Hf10  1  0.49946482  0.50000000  0.49771455  1
  Hf  Hf11  1  0.80059192  0.00000000  0.60251810  1
  Nb  Nb12  1  0.40242284  0.00000000  0.81113284  1
  Nb  Nb13  1  0.09835642  0.50000000  0.71169081  1
  Ta  Ta14  1  0.19961137  0.00000000  0.39152261  1
  Ta  Ta15  1  0.89966907  0.50000000  0.28856915  1
  Ti  Ti16  1  0.30342640  0.50000000  0.09817737  1
  Ti  Ti17  1  0.60367788  0.00000000  0.19547170  1
  V  V18  1  0.69680687  0.50000000  0.90550590  1
  V  V19  1  0.99187009  0.00000000  0.99798242  1
