# generated using pymatgen
data_HfTaTiNbVC5
_symmetry_space_group_name_H-M   'P 1'
_cell_length_a   7.02150000
_cell_length_b   4.46350000
_cell_length_c   7.02450000
_cell_angle_alpha   90.00000000
_cell_angle_beta   90.00000000
_cell_angle_gamma   90.00000000
_symmetry_Int_Tables_number   1
_chemical_formula_structural   HfTaTiNbVC5
_chemical_formula_sum   'Hf2 Ta2 Ti2 Nb2 V2 C10'
_cell_volume   220.15109815
_cell_formula_units_Z   2
loop_
 _symmetry_equiv_pos_site_id
 _symmetry_equiv_pos_as_xyz
  1  'x, y, z'
loop_
 _atom_site_type_symbol
 _atom_site_label
 _atom_site_symmetry_multiplicity
 _atom_site_fract_x
 _atom_site_fract_y
 _atom_site_fract_z
 _atom_site_occupancy
  C  C0  1  0.70684511  0.00000000  0.90929918  1
  C  C1  1  0.49580685  0.00000000  0.49671128  1
  C  C2  1  0.60046551  0.50000000  0.18713462  1
  C  C3  1  0.89821686  0.00000000  0.28868925  1
  C  C4  1  0.99717580  0.50000000  0.00039300  1
  C  C5  1  0.29758093  0.00000000  0.10057207  1
  C  C6  1  0.40458193  0.50000000  0.81014077  1
  C  C7  1  0.80459903  0.50000000  0.60562058  1
  C  C8  1  0.10219235  0.00000000  0.70722673  1
  C  C9  1  0.19668999  0.50000000  0.39394069  1
  Hf  Hf10  1  0.49945523  0.50000000  0.49773111  1
  Hf  Hf11  1  0.80058874  0.00000000  0.60251761  1
  Nb  Nb12  1  0.40233304  0.00000000  0.81121574  1
  Nb  Nb13  1  0.09823518  0.50000000  0.71176981  1
  Ta  Ta14  1  0.19969810  0.00000000  0.39141225  1
  Ta  Ta15  1  0.89976459  0.50000000  0.28848455  1
  Ti  Ti16  1  0.30351580  0.50000000  0.09814183  1
  Ti  Ti17  1  0.60379332  0.00000000  0.19546244  1
  V  V18  1  0.69674089  0.50000000  0.90560200  1
  V  V19  1  0.99172074  0.00000000  0.99795449  1
