# generated using pymatgen
data_HfTaTiNbVC5
_symmetry_space_group_name_H-M   'P 1'
_cell_length_a   7.00870000
_cell_length_b   4.45070000
_cell_length_c   7.01170000
_cell_angle_alpha   90.00000000
_cell_angle_beta   90.00000000
_cell_angle_gamma   90.00000000
_symmetry_Int_Tables_number   1
_chemical_formula_structural   HfTaTiNbVC5
_chemical_formula_sum   'Hf2 Ta2 Ti2 Nb2 V2 C10'
_cell_volume   218.72031300
_cell_formula_units_Z   2
loop_
 _symmetry_equiv_pos_site_id
 _symmetry_equiv_pos_as_xyz
  1  'x, y, z'
loop_
 _atom_site_type_symbol
 _atom_site_label
 _atom_site_symmetry_multiplicity
 _atom_site_fract_x
 _atom_site_fract_y
 _atom_site_fract_z
 _atom_site_occupancy
  C  C0  1  0.70693738  0.00000000  0.90930561  1
  C  C1  1  0.49585745  0.00000000  0.49667350  1
  C  C2  1  0.60028019  0.50000000  0.18707484  1
  C  C3  1  0.89807383  0.00000000  0.28866734  1
  C  C4  1  0.99721391  0.50000000  0.00038662  1
  C  C5  1  0.29748063  0.00000000  0.10052149  1
  C  C6  1  0.40470009  0.50000000  0.81013801  1
  C  C7  1  0.80453153  0.50000000  0.60570819  1
  C  C8  1  0.10223708  0.00000000  0.70726177  1
  C  C9  1  0.19668700  0.50000000  0.39397201  1
  Hf  Hf10  1  0.49947197  0.50000000  0.49767816  1
  Hf  Hf11  1  0.80059459  0.00000000  0.60250680  1
  Nb  Nb12  1  0.40250190  0.00000000  0.81108949  1
  Nb  Nb13  1  0.09846234  0.50000000  0.71163167  1
  Ta  Ta14  1  0.19954031  0.00000000  0.39165649  1
  Ta  Ta15  1  0.89957886  0.50000000  0.28864366  1
  Ti  Ti16  1  0.30329928  0.50000000  0.09819249  1
  Ti  Ti17  1  0.60359837  0.00000000  0.19549109  1
  V  V18  1  0.69695407  0.50000000  0.90542595  1
  V  V19  1  0.99199922  0.00000000  0.99799480  1
