# generated using pymatgen
data_HfTaTiNbWC5
_symmetry_space_group_name_H-M   'P 1'
_cell_length_a   7.09500000
_cell_length_b   4.49100000
_cell_length_c   7.09100000
_cell_angle_alpha   90.00000000
_cell_angle_beta   90.00000000
_cell_angle_gamma   90.00000000
_symmetry_Int_Tables_number   1
_chemical_formula_structural   HfTaTiNbWC5
_chemical_formula_sum   'Hf2 Ta2 Ti2 Nb2 W2 C10'
_cell_volume   225.94510669
_cell_formula_units_Z   2
loop_
 _symmetry_equiv_pos_site_id
 _symmetry_equiv_pos_as_xyz
  1  'x, y, z'
loop_
 _atom_site_type_symbol
 _atom_site_label
 _atom_site_symmetry_multiplicity
 _atom_site_fract_x
 _atom_site_fract_y
 _atom_site_fract_z
 _atom_site_occupancy
  C  C0  1  0.70460000  0.00000000  0.90756155  1
  C  C1  1  0.49621976  0.00000000  0.49737455  1
  C  C2  1  0.59880057  0.50000000  0.19166037  1
  C  C3  1  0.89779562  0.00000000  0.29212515  1
  C  C4  1  0.99889242  0.50000000  0.00207254  1
  C  C5  1  0.30096441  0.00000000  0.10288089  1
  C  C6  1  0.40264827  0.50000000  0.80714605  1
  C  C7  1  0.80389804  0.50000000  0.60024100  1
  C  C8  1  0.10267033  0.00000000  0.70153863  1
  C  C9  1  0.19510742  0.50000000  0.39610191  1
  Hf  Hf10  1  0.49847181  0.50000000  0.49451228  1
  Hf  Hf11  1  0.79929088  0.00000000  0.60169157  1
  Nb  Nb12  1  0.39693482  0.00000000  0.80766381  1
  Nb  Nb13  1  0.10386160  0.50000000  0.70935897  1
  Ta  Ta14  1  0.20088560  0.00000000  0.39533596  1
  Ta  Ta15  1  0.89867139  0.50000000  0.29415262  1
  Ti  Ti16  1  0.30347249  0.50000000  0.09933109  1
  Ti  Ti17  1  0.59441173  0.00000000  0.19342189  1
  W  W18  1  0.68875044  0.50000000  0.90157610  1
  W  W19  1  0.01365243  0.00000000  0.00427307  1
