# generated using pymatgen
data_HfTaTiNbWC5
_symmetry_space_group_name_H-M   'P 1'
_cell_length_a   7.08900000
_cell_length_b   4.48500000
_cell_length_c   7.08500000
_cell_angle_alpha   90.00000000
_cell_angle_beta   90.00000000
_cell_angle_gamma   90.00000000
_symmetry_Int_Tables_number   1
_chemical_formula_structural   HfTaTiNbWC5
_chemical_formula_sum   'Hf2 Ta2 Ti2 Nb2 W2 C10'
_cell_volume   225.26165903
_cell_formula_units_Z   2
loop_
 _symmetry_equiv_pos_site_id
 _symmetry_equiv_pos_as_xyz
  1  'x, y, z'
loop_
 _atom_site_type_symbol
 _atom_site_label
 _atom_site_symmetry_multiplicity
 _atom_site_fract_x
 _atom_site_fract_y
 _atom_site_fract_z
 _atom_site_occupancy
  C  C0  1  0.70463765  0.00000000  0.90759564  1
  C  C1  1  0.49624409  0.00000000  0.49734977  1
  C  C2  1  0.59872369  0.50000000  0.19170430  1
  C  C3  1  0.89768775  0.00000000  0.29213435  1
  C  C4  1  0.99894275  0.50000000  0.00206966  1
  C  C5  1  0.30099776  0.00000000  0.10287328  1
  C  C6  1  0.40266959  0.50000000  0.80716120  1
  C  C7  1  0.80389745  0.50000000  0.60025654  1
  C  C8  1  0.10267168  0.00000000  0.70150547  1
  C  C9  1  0.19511175  0.50000000  0.39607692  1
  Hf  Hf10  1  0.49845373  0.50000000  0.49454638  1
  Hf  Hf11  1  0.79929403  0.00000000  0.60168469  1
  Nb  Nb12  1  0.39703383  0.00000000  0.80763732  1
  Nb  Nb13  1  0.10383371  0.50000000  0.70924401  1
  Ta  Ta14  1  0.20080248  0.00000000  0.39536903  1
  Ta  Ta15  1  0.89856934  0.50000000  0.29422594  1
  Ti  Ti16  1  0.30345138  0.50000000  0.09932636  1
  Ti  Ti17  1  0.59442318  0.00000000  0.19351173  1
  W  W18  1  0.68897302  0.50000000  0.90155130  1
  W  W19  1  0.01358115  0.00000000  0.00419610  1
