# generated using pymatgen
data_HfTaTiNbVC5
_symmetry_space_group_name_H-M   'P 1'
_cell_length_a   7.00950000
_cell_length_b   4.45150000
_cell_length_c   7.01250000
_cell_angle_alpha   90.00000000
_cell_angle_beta   90.00000000
_cell_angle_gamma   90.00000000
_symmetry_Int_Tables_number   1
_chemical_formula_structural   HfTaTiNbVC5
_chemical_formula_sum   'Hf2 Ta2 Ti2 Nb2 V2 C10'
_cell_volume   218.80955962
_cell_formula_units_Z   2
loop_
 _symmetry_equiv_pos_site_id
 _symmetry_equiv_pos_as_xyz
  1  'x, y, z'
loop_
 _atom_site_type_symbol
 _atom_site_label
 _atom_site_symmetry_multiplicity
 _atom_site_fract_x
 _atom_site_fract_y
 _atom_site_fract_z
 _atom_site_occupancy
  C  C0  1  0.70695468  0.00000000  0.90933125  1
  C  C1  1  0.49587280  0.00000000  0.49666726  1
  C  C2  1  0.60030662  0.50000000  0.18707962  1
  C  C3  1  0.89809190  0.00000000  0.28867066  1
  C  C4  1  0.99719405  0.50000000  0.00037696  1
  C  C5  1  0.29747169  0.00000000  0.10050120  1
  C  C6  1  0.40466142  0.50000000  0.81014564  1
  C  C7  1  0.80452861  0.50000000  0.60570279  1
  C  C8  1  0.10222838  0.00000000  0.70727527  1
  C  C9  1  0.19667082  0.50000000  0.39397348  1
  Hf  Hf10  1  0.49947536  0.50000000  0.49767585  1
  Hf  Hf11  1  0.80060212  0.00000000  0.60252286  1
  Nb  Nb12  1  0.40250637  0.00000000  0.81110081  1
  Nb  Nb13  1  0.09844956  0.50000000  0.71162263  1
  Ta  Ta14  1  0.19954063  0.00000000  0.39165108  1
  Ta  Ta15  1  0.89958336  0.50000000  0.28863078  1
  Ti  Ti16  1  0.30325106  0.50000000  0.09818620  1
  Ti  Ti17  1  0.60360073  0.00000000  0.19547121  1
  V  V18  1  0.69701496  0.50000000  0.90544087  1
  V  V19  1  0.99199489  0.00000000  0.99799354  1
