# generated using pymatgen
data_HfTaTiNbWC5
_symmetry_space_group_name_H-M   'P 1'
_cell_length_a   7.09300000
_cell_length_b   4.48900000
_cell_length_c   7.08900000
_cell_angle_alpha   90.00000000
_cell_angle_beta   90.00000000
_cell_angle_gamma   90.00000000
_symmetry_Int_Tables_number   1
_chemical_formula_structural   HfTaTiNbWC5
_chemical_formula_sum   'Hf2 Ta2 Ti2 Nb2 W2 C10'
_cell_volume   225.71714145
_cell_formula_units_Z   2
loop_
 _symmetry_equiv_pos_site_id
 _symmetry_equiv_pos_as_xyz
  1  'x, y, z'
loop_
 _atom_site_type_symbol
 _atom_site_label
 _atom_site_symmetry_multiplicity
 _atom_site_fract_x
 _atom_site_fract_y
 _atom_site_fract_z
 _atom_site_occupancy
  C  C0  1  0.70461190  0.00000000  0.90757315  1
  C  C1  1  0.49623064  0.00000000  0.49736580  1
  C  C2  1  0.59876788  0.50000000  0.19167160  1
  C  C3  1  0.89776687  0.00000000  0.29212310  1
  C  C4  1  0.99891654  0.50000000  0.00207552  1
  C  C5  1  0.30097794  0.00000000  0.10288822  1
  C  C6  1  0.40265654  0.50000000  0.80714540  1
  C  C7  1  0.80389074  0.50000000  0.60025437  1
  C  C8  1  0.10267088  0.00000000  0.70153650  1
  C  C9  1  0.19510520  0.50000000  0.39609798  1
  Hf  Hf10  1  0.49846145  0.50000000  0.49450582  1
  Hf  Hf11  1  0.79928876  0.00000000  0.60168263  1
  Nb  Nb12  1  0.39698644  0.00000000  0.80764759  1
  Nb  Nb13  1  0.10384317  0.50000000  0.70933216  1
  Ta  Ta14  1  0.20085403  0.00000000  0.39536559  1
  Ta  Ta15  1  0.89863901  0.50000000  0.29416991  1
  Ti  Ti16  1  0.30345507  0.50000000  0.09932298  1
  Ti  Ti17  1  0.59440398  0.00000000  0.19345461  1
  W  W18  1  0.68881318  0.50000000  0.90155596  1
  W  W19  1  0.01365977  0.00000000  0.00425114  1
