# generated using pymatgen
data_HfTaTiNbWC5
_symmetry_space_group_name_H-M   'P 1'
_cell_length_a   7.09200000
_cell_length_b   4.48800000
_cell_length_c   7.08800000
_cell_angle_alpha   90.00000000
_cell_angle_beta   90.00000000
_cell_angle_gamma   90.00000000
_symmetry_Int_Tables_number   1
_chemical_formula_structural   HfTaTiNbWC5
_chemical_formula_sum   'Hf2 Ta2 Ti2 Nb2 W2 C10'
_cell_volume   225.60321485
_cell_formula_units_Z   2
loop_
 _symmetry_equiv_pos_site_id
 _symmetry_equiv_pos_as_xyz
  1  'x, y, z'
loop_
 _atom_site_type_symbol
 _atom_site_label
 _atom_site_symmetry_multiplicity
 _atom_site_fract_x
 _atom_site_fract_y
 _atom_site_fract_z
 _atom_site_occupancy
  C  C0  1  0.70461882  0.00000000  0.90757532  1
  C  C1  1  0.49623116  0.00000000  0.49736131  1
  C  C2  1  0.59876018  0.50000000  0.19167989  1
  C  C3  1  0.89774768  0.00000000  0.29212734  1
  C  C4  1  0.99892244  0.50000000  0.00207489  1
  C  C5  1  0.30098013  0.00000000  0.10288602  1
  C  C6  1  0.40266143  0.50000000  0.80714953  1
  C  C7  1  0.80388969  0.50000000  0.60025283  1
  C  C8  1  0.10266897  0.00000000  0.70152800  1
  C  C9  1  0.19510680  0.50000000  0.39609663  1
  Hf  Hf10  1  0.49845833  0.50000000  0.49451422  1
  Hf  Hf11  1  0.79929042  0.00000000  0.60168286  1
  Nb  Nb12  1  0.39700026  0.00000000  0.80764724  1
  Nb  Nb13  1  0.10383567  0.50000000  0.70931126  1
  Ta  Ta14  1  0.20083803  0.00000000  0.39536426  1
  Ta  Ta15  1  0.89862355  0.50000000  0.29418449  1
  Ti  Ti16  1  0.30345877  0.50000000  0.09932209  1
  Ti  Ti17  1  0.59441223  0.00000000  0.19347307  1
  W  W18  1  0.68885151  0.50000000  0.90154988  1
  W  W19  1  0.01364395  0.00000000  0.00423889  1
