# generated using pymatgen
data_HfTaTiNbWC5
_symmetry_space_group_name_H-M   'P 1'
_cell_length_a   7.09000000
_cell_length_b   4.48600000
_cell_length_c   7.08600000
_cell_angle_alpha   90.00000000
_cell_angle_beta   90.00000000
_cell_angle_gamma   90.00000000
_symmetry_Int_Tables_number   1
_chemical_formula_structural   HfTaTiNbWC5
_chemical_formula_sum   'Hf2 Ta2 Ti2 Nb2 W2 C10'
_cell_volume   225.37547364
_cell_formula_units_Z   2
loop_
 _symmetry_equiv_pos_site_id
 _symmetry_equiv_pos_as_xyz
  1  'x, y, z'
loop_
 _atom_site_type_symbol
 _atom_site_label
 _atom_site_symmetry_multiplicity
 _atom_site_fract_x
 _atom_site_fract_y
 _atom_site_fract_z
 _atom_site_occupancy
  C  C0  1  0.70463056  0.00000000  0.90759034  1
  C  C1  1  0.49623893  0.00000000  0.49735294  1
  C  C2  1  0.59873812  0.50000000  0.19169942  1
  C  C3  1  0.89770368  0.00000000  0.29213570  1
  C  C4  1  0.99893353  0.50000000  0.00206986  1
  C  C5  1  0.30099143  0.00000000  0.10287402  1
  C  C6  1  0.40266686  0.50000000  0.80715999  1
  C  C7  1  0.80389549  0.50000000  0.60025622  1
  C  C8  1  0.10267136  0.00000000  0.70151168  1
  C  C9  1  0.19511080  0.50000000  0.39608006  1
  Hf  Hf10  1  0.49845359  0.50000000  0.49453679  1
  Hf  Hf11  1  0.79929049  0.00000000  0.60168869  1
  Nb  Nb12  1  0.39702150  0.00000000  0.80764757  1
  Nb  Nb13  1  0.10383001  0.50000000  0.70926246  1
  Ta  Ta14  1  0.20081676  0.00000000  0.39536014  1
  Ta  Ta15  1  0.89858777  0.50000000  0.29421463  1
  Ti  Ti16  1  0.30345837  0.50000000  0.09932442  1
  Ti  Ti17  1  0.59442810  0.00000000  0.19349247  1
  W  W18  1  0.68893740  0.50000000  0.90155597  1
  W  W19  1  0.01359526  0.00000000  0.00420663  1
