# generated using pymatgen
data_HfTaTiNbWC5
_symmetry_space_group_name_H-M   'P 1'
_cell_length_a   7.09400000
_cell_length_b   4.49000000
_cell_length_c   7.09000000
_cell_angle_alpha   90.00000000
_cell_angle_beta   90.00000000
_cell_angle_gamma   90.00000000
_symmetry_Int_Tables_number   1
_chemical_formula_structural   HfTaTiNbWC5
_chemical_formula_sum   'Hf2 Ta2 Ti2 Nb2 W2 C10'
_cell_volume   225.83110540
_cell_formula_units_Z   2
loop_
 _symmetry_equiv_pos_site_id
 _symmetry_equiv_pos_as_xyz
  1  'x, y, z'
loop_
 _atom_site_type_symbol
 _atom_site_label
 _atom_site_symmetry_multiplicity
 _atom_site_fract_x
 _atom_site_fract_y
 _atom_site_fract_z
 _atom_site_occupancy
  C  C0  1  0.70460718  0.00000000  0.90756874  1
  C  C1  1  0.49622436  0.00000000  0.49737447  1
  C  C2  1  0.59879140  0.50000000  0.19166842  1
  C  C3  1  0.89777464  0.00000000  0.29212738  1
  C  C4  1  0.99890440  0.50000000  0.00206739  1
  C  C5  1  0.30097067  0.00000000  0.10287927  1
  C  C6  1  0.40264774  0.50000000  0.80714930  1
  C  C7  1  0.80389494  0.50000000  0.60024259  1
  C  C8  1  0.10267319  0.00000000  0.70152863  1
  C  C9  1  0.19510663  0.50000000  0.39609618  1
  Hf  Hf10  1  0.49847231  0.50000000  0.49452527  1
  Hf  Hf11  1  0.79929229  0.00000000  0.60168853  1
  Nb  Nb12  1  0.39694360  0.00000000  0.80766236  1
  Nb  Nb13  1  0.10386130  0.50000000  0.70933828  1
  Ta  Ta14  1  0.20087117  0.00000000  0.39533784  1
  Ta  Ta15  1  0.89865109  0.50000000  0.29416690  1
  Ti  Ti16  1  0.30347280  0.50000000  0.09932943  1
  Ti  Ti17  1  0.59441535  0.00000000  0.19343736  1
  W  W18  1  0.68878618  0.50000000  0.90157167  1
  W  W19  1  0.01363874  0.00000000  0.00425997  1
