# generated using pymatgen
data_HfTaTiNbWC5
_symmetry_space_group_name_H-M   'P 1'
_cell_length_a   7.08000000
_cell_length_b   4.47600000
_cell_length_c   7.07600000
_cell_angle_alpha   90.00000000
_cell_angle_beta   90.00000000
_cell_angle_gamma   90.00000000
_symmetry_Int_Tables_number   1
_chemical_formula_structural   HfTaTiNbWC5
_chemical_formula_sum   'Hf2 Ta2 Ti2 Nb2 W2 C10'
_cell_volume   224.23900608
_cell_formula_units_Z   2
loop_
 _symmetry_equiv_pos_site_id
 _symmetry_equiv_pos_as_xyz
  1  'x, y, z'
loop_
 _atom_site_type_symbol
 _atom_site_label
 _atom_site_symmetry_multiplicity
 _atom_site_fract_x
 _atom_site_fract_y
 _atom_site_fract_z
 _atom_site_occupancy
  C  C0  1  0.70467416  0.00000000  0.90764205  1
  C  C1  1  0.49628173  0.00000000  0.49731836  1
  C  C2  1  0.59861768  0.50000000  0.19177202  1
  C  C3  1  0.89751347  0.00000000  0.29214064  1
  C  C4  1  0.99902176  0.50000000  0.00207153  1
  C  C5  1  0.30105453  0.00000000  0.10285245  1
  C  C6  1  0.40269147  0.50000000  0.80719374  1
  C  C7  1  0.80391382  0.50000000  0.60025201  1
  C  C8  1  0.10267642  0.00000000  0.70144686  1
  C  C9  1  0.19512018  0.50000000  0.39603114  1
  Hf  Hf10  1  0.49844198  0.50000000  0.49464114  1
  Hf  Hf11  1  0.79930321  0.00000000  0.60168687  1
  Nb  Nb12  1  0.39713670  0.00000000  0.80757870  1
  Nb  Nb13  1  0.10384439  0.50000000  0.70905511  1
  Ta  Ta14  1  0.20070590  0.00000000  0.39538347  1
  Ta  Ta15  1  0.89840995  0.50000000  0.29433613  1
  Ti  Ti16  1  0.30341572  0.50000000  0.09935576  1
  Ti  Ti17  1  0.59443905  0.00000000  0.19364804  1
  W  W18  1  0.68929665  0.50000000  0.90151793  1
  W  W19  1  0.01344123  0.00000000  0.00409603  1
