# generated using pymatgen
data_HfTaTiNbWC5
_symmetry_space_group_name_H-M   'P 1'
_cell_length_a   7.08300000
_cell_length_b   4.47900000
_cell_length_c   7.07900000
_cell_angle_alpha   90.00000000
_cell_angle_beta   90.00000000
_cell_angle_gamma   90.00000000
_symmetry_Int_Tables_number   1
_chemical_formula_structural   HfTaTiNbWC5
_chemical_formula_sum   'Hf2 Ta2 Ti2 Nb2 W2 C10'
_cell_volume   224.57955480
_cell_formula_units_Z   2
loop_
 _symmetry_equiv_pos_site_id
 _symmetry_equiv_pos_as_xyz
  1  'x, y, z'
loop_
 _atom_site_type_symbol
 _atom_site_label
 _atom_site_symmetry_multiplicity
 _atom_site_fract_x
 _atom_site_fract_y
 _atom_site_fract_z
 _atom_site_occupancy
  C  C0  1  0.70466930  0.00000000  0.90763010  1
  C  C1  1  0.49626611  0.00000000  0.49733184  1
  C  C2  1  0.59865799  0.50000000  0.19175397  1
  C  C3  1  0.89757182  0.00000000  0.29213914  1
  C  C4  1  0.99899763  0.50000000  0.00206698  1
  C  C5  1  0.30103883  0.00000000  0.10285804  1
  C  C6  1  0.40267881  0.50000000  0.80718004  1
  C  C7  1  0.80390707  0.50000000  0.60024901  1
  C  C8  1  0.10267336  0.00000000  0.70146079  1
  C  C9  1  0.19511483  0.50000000  0.39604549  1
  Hf  Hf10  1  0.49844760  0.50000000  0.49461161  1
  Hf  Hf11  1  0.79930434  0.00000000  0.60168423  1
  Nb  Nb12  1  0.39709544  0.00000000  0.80760163  1
  Nb  Nb13  1  0.10384727  0.50000000  0.70911541  1
  Ta  Ta14  1  0.20073603  0.00000000  0.39537746  1
  Ta  Ta15  1  0.89845683  0.50000000  0.29430052  1
  Ti  Ti16  1  0.30343601  0.50000000  0.09935382  1
  Ti  Ti17  1  0.59442985  0.00000000  0.19360062  1
  W  W18  1  0.68918470  0.50000000  0.90153098  1
  W  W19  1  0.01348617  0.00000000  0.00412833  1
