# generated using pymatgen
data_HfTaTiNbWC5
_symmetry_space_group_name_H-M   'P 1'
_cell_length_a   7.08100000
_cell_length_b   4.47700000
_cell_length_c   7.07700000
_cell_angle_alpha   90.00000000
_cell_angle_beta   90.00000000
_cell_angle_gamma   90.00000000
_symmetry_Int_Tables_number   1
_chemical_formula_structural   HfTaTiNbWC5
_chemical_formula_sum   'Hf2 Ta2 Ti2 Nb2 W2 C10'
_cell_volume   224.35248505
_cell_formula_units_Z   2
loop_
 _symmetry_equiv_pos_site_id
 _symmetry_equiv_pos_as_xyz
  1  'x, y, z'
loop_
 _atom_site_type_symbol
 _atom_site_label
 _atom_site_symmetry_multiplicity
 _atom_site_fract_x
 _atom_site_fract_y
 _atom_site_fract_z
 _atom_site_occupancy
  C  C0  1  0.70468082  0.00000000  0.90763980  1
  C  C1  1  0.49627543  0.00000000  0.49732291  1
  C  C2  1  0.59862741  0.50000000  0.19176146  1
  C  C3  1  0.89753925  0.00000000  0.29213997  1
  C  C4  1  0.99901720  0.50000000  0.00207283  1
  C  C5  1  0.30105146  0.00000000  0.10286032  1
  C  C6  1  0.40268644  0.50000000  0.80718208  1
  C  C7  1  0.80390427  0.50000000  0.60025193  1
  C  C8  1  0.10267651  0.00000000  0.70145393  1
  C  C9  1  0.19511230  0.50000000  0.39603789  1
  Hf  Hf10  1  0.49844066  0.50000000  0.49462120  1
  Hf  Hf11  1  0.79930029  0.00000000  0.60168262  1
  Nb  Nb12  1  0.39713130  0.00000000  0.80758254  1
  Nb  Nb13  1  0.10384589  0.50000000  0.70908576  1
  Ta  Ta14  1  0.20071629  0.00000000  0.39539752  1
  Ta  Ta15  1  0.89842633  0.50000000  0.29431991  1
  Ti  Ti16  1  0.30341971  0.50000000  0.09934807  1
  Ti  Ti17  1  0.59442648  0.00000000  0.19363108  1
  W  W18  1  0.68925372  0.50000000  0.90152453  1
  W  W19  1  0.01346821  0.00000000  0.00410367  1
