# generated using pymatgen
data_HfTaTiNbWC5
_symmetry_space_group_name_H-M   'P 1'
_cell_length_a   7.07900000
_cell_length_b   4.47500000
_cell_length_c   7.07500000
_cell_angle_alpha   90.00000000
_cell_angle_beta   90.00000000
_cell_angle_gamma   90.00000000
_symmetry_Int_Tables_number   1
_chemical_formula_structural   HfTaTiNbWC5
_chemical_formula_sum   'Hf2 Ta2 Ti2 Nb2 W2 C10'
_cell_volume   224.12556437
_cell_formula_units_Z   2
loop_
 _symmetry_equiv_pos_site_id
 _symmetry_equiv_pos_as_xyz
  1  'x, y, z'
loop_
 _atom_site_type_symbol
 _atom_site_label
 _atom_site_symmetry_multiplicity
 _atom_site_fract_x
 _atom_site_fract_y
 _atom_site_fract_z
 _atom_site_occupancy
  C  C0  1  0.70468586  0.00000000  0.90765176  1
  C  C1  1  0.49628825  0.00000000  0.49731839  1
  C  C2  1  0.59860408  0.50000000  0.19178213  1
  C  C3  1  0.89749657  0.00000000  0.29214425  1
  C  C4  1  0.99903276  0.50000000  0.00206731  1
  C  C5  1  0.30106523  0.00000000  0.10284674  1
  C  C6  1  0.40268854  0.50000000  0.80719377  1
  C  C7  1  0.80391337  0.50000000  0.60024627  1
  C  C8  1  0.10266935  0.00000000  0.70143603  1
  C  C9  1  0.19511720  0.50000000  0.39602464  1
  Hf  Hf10  1  0.49844002  0.50000000  0.49465249  1
  Hf  Hf11  1  0.79931290  0.00000000  0.60168124  1
  Nb  Nb12  1  0.39713849  0.00000000  0.80757513  1
  Nb  Nb13  1  0.10385684  0.50000000  0.70903074  1
  Ta  Ta14  1  0.20069074  0.00000000  0.39538883  1
  Ta  Ta15  1  0.89838866  0.50000000  0.29434732  1
  Ti  Ti16  1  0.30342459  0.50000000  0.09936377  1
  Ti  Ti17  1  0.59443862  0.00000000  0.19366555  1
  W  W18  1  0.68933135  0.50000000  0.90152133  1
  W  W19  1  0.01341658  0.00000000  0.00408233  1
