# generated using pymatgen
data_HfTaTiNbWC5
_symmetry_space_group_name_H-M   'P 1'
_cell_length_a   7.08400000
_cell_length_b   4.48000000
_cell_length_c   7.08000000
_cell_angle_alpha   90.00000000
_cell_angle_beta   90.00000000
_cell_angle_gamma   90.00000000
_symmetry_Int_Tables_number   1
_chemical_formula_structural   HfTaTiNbWC5
_chemical_formula_sum   'Hf2 Ta2 Ti2 Nb2 W2 C10'
_cell_volume   224.69314560
_cell_formula_units_Z   2
loop_
 _symmetry_equiv_pos_site_id
 _symmetry_equiv_pos_as_xyz
  1  'x, y, z'
loop_
 _atom_site_type_symbol
 _atom_site_label
 _atom_site_symmetry_multiplicity
 _atom_site_fract_x
 _atom_site_fract_y
 _atom_site_fract_z
 _atom_site_occupancy
  C  C0  1  0.70466701  0.00000000  0.90762488  1
  C  C1  1  0.49626110  0.00000000  0.49733295  1
  C  C2  1  0.59866637  0.50000000  0.19174095  1
  C  C3  1  0.89759473  0.00000000  0.29213661  1
  C  C4  1  0.99899128  0.50000000  0.00206958  1
  C  C5  1  0.30103450  0.00000000  0.10286753  1
  C  C6  1  0.40267624  0.50000000  0.80717550  1
  C  C7  1  0.80390281  0.50000000  0.60025122  1
  C  C8  1  0.10267131  0.00000000  0.70147270  1
  C  C9  1  0.19511299  0.50000000  0.39605305  1
  Hf  Hf10  1  0.49844687  0.50000000  0.49459298  1
  Hf  Hf11  1  0.79929492  0.00000000  0.60168146  1
  Nb  Nb12  1  0.39709741  0.00000000  0.80760312  1
  Nb  Nb13  1  0.10383834  0.50000000  0.70914524  1
  Ta  Ta14  1  0.20074681  0.00000000  0.39538605  1
  Ta  Ta15  1  0.89847775  0.50000000  0.29428336  1
  Ti  Ti16  1  0.30343332  0.50000000  0.09934406  1
  Ti  Ti17  1  0.59442619  0.00000000  0.19358765  1
  W  W18  1  0.68914147  0.50000000  0.90153004  1
  W  W19  1  0.01351857  0.00000000  0.00414107  1
