# generated using pymatgen
data_HfTaTiNbWC5
_symmetry_space_group_name_H-M   'P 1'
_cell_length_a   7.08800000
_cell_length_b   4.48400000
_cell_length_c   7.08400000
_cell_angle_alpha   90.00000000
_cell_angle_beta   90.00000000
_cell_angle_gamma   90.00000000
_symmetry_Int_Tables_number   1
_chemical_formula_structural   HfTaTiNbWC5
_chemical_formula_sum   'Hf2 Ta2 Ti2 Nb2 W2 C10'
_cell_volume   225.14788173
_cell_formula_units_Z   2
loop_
 _symmetry_equiv_pos_site_id
 _symmetry_equiv_pos_as_xyz
  1  'x, y, z'
loop_
 _atom_site_type_symbol
 _atom_site_label
 _atom_site_symmetry_multiplicity
 _atom_site_fract_x
 _atom_site_fract_y
 _atom_site_fract_z
 _atom_site_occupancy
  C  C0  1  0.70464342  0.00000000  0.90760214  1
  C  C1  1  0.49624897  0.00000000  0.49734671  1
  C  C2  1  0.59871116  0.50000000  0.19171204  1
  C  C3  1  0.89766955  0.00000000  0.29213671  1
  C  C4  1  0.99895323  0.50000000  0.00206857  1
  C  C5  1  0.30100244  0.00000000  0.10286915  1
  C  C6  1  0.40267168  0.50000000  0.80716384  1
  C  C7  1  0.80390045  0.50000000  0.60025552  1
  C  C8  1  0.10267228  0.00000000  0.70149696  1
  C  C9  1  0.19511408  0.50000000  0.39607239  1
  Hf  Hf10  1  0.49845458  0.50000000  0.49455368  1
  Hf  Hf11  1  0.79929745  0.00000000  0.60168276  1
  Nb  Nb12  1  0.39704571  0.00000000  0.80763313  1
  Nb  Nb13  1  0.10383286  0.50000000  0.70922029  1
  Ta  Ta14  1  0.20079038  0.00000000  0.39537030  1
  Ta  Ta15  1  0.89854989  0.50000000  0.29424197  1
  Ti  Ti16  1  0.30344530  0.50000000  0.09933028  1
  Ti  Ti17  1  0.59442696  0.00000000  0.19352915  1
  W  W18  1  0.68900813  0.50000000  0.90154948  1
  W  W19  1  0.01356148  0.00000000  0.00418491  1
