# generated using pymatgen
data_HfTaTiNbWC5
_symmetry_space_group_name_H-M   'P 1'
_cell_length_a   7.07700000
_cell_length_b   4.47300000
_cell_length_c   7.07300000
_cell_angle_alpha   90.00000000
_cell_angle_beta   90.00000000
_cell_angle_gamma   90.00000000
_symmetry_Int_Tables_number   1
_chemical_formula_structural   HfTaTiNbWC5
_chemical_formula_sum   'Hf2 Ta2 Ti2 Nb2 W2 C10'
_cell_volume   223.89879273
_cell_formula_units_Z   2
loop_
 _symmetry_equiv_pos_site_id
 _symmetry_equiv_pos_as_xyz
  1  'x, y, z'
loop_
 _atom_site_type_symbol
 _atom_site_label
 _atom_site_symmetry_multiplicity
 _atom_site_fract_x
 _atom_site_fract_y
 _atom_site_fract_z
 _atom_site_occupancy
  C  C0  1  0.70468383  0.00000000  0.90767160  1
  C  C1  1  0.49628704  0.00000000  0.49731474  1
  C  C2  1  0.59859902  0.50000000  0.19178650  1
  C  C3  1  0.89747974  0.00000000  0.29215958  1
  C  C4  1  0.99904209  0.50000000  0.00204998  1
  C  C5  1  0.30109653  0.00000000  0.10284698  1
  C  C6  1  0.40266557  0.50000000  0.80720578  1
  C  C7  1  0.80390904  0.50000000  0.60027171  1
  C  C8  1  0.10266938  0.00000000  0.70143742  1
  C  C9  1  0.19512851  0.50000000  0.39600152  1
  Hf  Hf10  1  0.49844509  0.50000000  0.49465692  1
  Hf  Hf11  1  0.79930417  0.00000000  0.60167591  1
  Nb  Nb12  1  0.39717200  0.00000000  0.80756393  1
  Nb  Nb13  1  0.10385217  0.50000000  0.70902440  1
  Ta  Ta14  1  0.20068507  0.00000000  0.39539865  1
  Ta  Ta15  1  0.89836045  0.50000000  0.29436110  1
  Ti  Ti16  1  0.30340295  0.50000000  0.09936882  1
  Ti  Ti17  1  0.59443637  0.00000000  0.19367141  1
  W  W18  1  0.68936905  0.50000000  0.90150167  1
  W  W19  1  0.01341191  0.00000000  0.00405139  1
