# generated using pymatgen
data_HfTaTiNbWC5
_symmetry_space_group_name_H-M   'P 1'
_cell_length_a   7.07800000
_cell_length_b   4.47400000
_cell_length_c   7.07400000
_cell_angle_alpha   90.00000000
_cell_angle_beta   90.00000000
_cell_angle_gamma   90.00000000
_symmetry_Int_Tables_number   1
_chemical_formula_structural   HfTaTiNbWC5
_chemical_formula_sum   'Hf2 Ta2 Ti2 Nb2 W2 C10'
_cell_volume   224.01215993
_cell_formula_units_Z   2
loop_
 _symmetry_equiv_pos_site_id
 _symmetry_equiv_pos_as_xyz
  1  'x, y, z'
loop_
 _atom_site_type_symbol
 _atom_site_label
 _atom_site_symmetry_multiplicity
 _atom_site_fract_x
 _atom_site_fract_y
 _atom_site_fract_z
 _atom_site_occupancy
  C  C0  1  0.70468655  0.00000000  0.90765309  1
  C  C1  1  0.49628848  0.00000000  0.49731312  1
  C  C2  1  0.59859574  0.50000000  0.19178432  1
  C  C3  1  0.89747906  0.00000000  0.29214611  1
  C  C4  1  0.99904098  0.50000000  0.00207214  1
  C  C5  1  0.30106829  0.00000000  0.10284460  1
  C  C6  1  0.40269065  0.50000000  0.80720142  1
  C  C7  1  0.80391203  0.50000000  0.60025314  1
  C  C8  1  0.10267637  0.00000000  0.70143304  1
  C  C9  1  0.19512020  0.50000000  0.39601537  1
  Hf  Hf10  1  0.49843955  0.50000000  0.49466663  1
  Hf  Hf11  1  0.79930120  0.00000000  0.60169032  1
  Nb  Nb12  1  0.39715330  0.00000000  0.80757137  1
  Nb  Nb13  1  0.10384868  0.50000000  0.70901596  1
  Ta  Ta14  1  0.20068773  0.00000000  0.39538387  1
  Ta  Ta15  1  0.89837784  0.50000000  0.29436092  1
  Ti  Ti16  1  0.30341061  0.50000000  0.09936326  1
  Ti  Ti17  1  0.59444456  0.00000000  0.19367174  1
  W  W18  1  0.68937380  0.50000000  0.90151201  1
  W  W19  1  0.01340437  0.00000000  0.00406758  1
