# generated using pymatgen
data_HfTaTiNbWC5
_symmetry_space_group_name_H-M   'P 1'
_cell_length_a   7.07200000
_cell_length_b   4.46800000
_cell_length_c   7.06800000
_cell_angle_alpha   90.00000000
_cell_angle_beta   90.00000000
_cell_angle_gamma   90.00000000
_symmetry_Int_Tables_number   1
_chemical_formula_structural   HfTaTiNbWC5
_chemical_formula_sum   'Hf2 Ta2 Ti2 Nb2 W2 C10'
_cell_volume   223.33251533
_cell_formula_units_Z   2
loop_
 _symmetry_equiv_pos_site_id
 _symmetry_equiv_pos_as_xyz
  1  'x, y, z'
loop_
 _atom_site_type_symbol
 _atom_site_label
 _atom_site_symmetry_multiplicity
 _atom_site_fract_x
 _atom_site_fract_y
 _atom_site_fract_z
 _atom_site_occupancy
  C  C0  1  0.70467891  0.00000000  0.90767983  1
  C  C1  1  0.49631178  0.00000000  0.49730188  1
  C  C2  1  0.59852848  0.50000000  0.19183997  1
  C  C3  1  0.89739493  0.00000000  0.29215227  1
  C  C4  1  0.99908140  0.50000000  0.00204752  1
  C  C5  1  0.30112202  0.00000000  0.10285113  1
  C  C6  1  0.40269289  0.50000000  0.80722298  1
  C  C7  1  0.80391171  0.50000000  0.60024730  1
  C  C8  1  0.10267952  0.00000000  0.70140264  1
  C  C9  1  0.19512887  0.50000000  0.39597719  1
  Hf  Hf10  1  0.49842093  0.50000000  0.49472242  1
  Hf  Hf11  1  0.79931866  0.00000000  0.60164554  1
  Nb  Nb12  1  0.39723473  0.00000000  0.80754057  1
  Nb  Nb13  1  0.10385606  0.50000000  0.70892452  1
  Ta  Ta14  1  0.20063932  0.00000000  0.39540968  1
  Ta  Ta15  1  0.89827903  0.50000000  0.29441539  1
  Ti  Ti16  1  0.30341806  0.50000000  0.09939344  1
  Ti  Ti17  1  0.59444944  0.00000000  0.19375759  1
  W  W18  1  0.68950586  0.50000000  0.90148381  1
  W  W19  1  0.01334739  0.00000000  0.00400432  1
