# generated using pymatgen
data_HfTaTiNbWC5
_symmetry_space_group_name_H-M   'P 1'
_cell_length_a   7.07100000
_cell_length_b   4.46700000
_cell_length_c   7.06700000
_cell_angle_alpha   90.00000000
_cell_angle_beta   90.00000000
_cell_angle_gamma   90.00000000
_symmetry_Int_Tables_number   1
_chemical_formula_structural   HfTaTiNbWC5
_chemical_formula_sum   'Hf2 Ta2 Ti2 Nb2 W2 C10'
_cell_volume   223.21937152
_cell_formula_units_Z   2
loop_
 _symmetry_equiv_pos_site_id
 _symmetry_equiv_pos_as_xyz
  1  'x, y, z'
loop_
 _atom_site_type_symbol
 _atom_site_label
 _atom_site_symmetry_multiplicity
 _atom_site_fract_x
 _atom_site_fract_y
 _atom_site_fract_z
 _atom_site_occupancy
  C  C0  1  0.70468215  0.00000000  0.90768189  1
  C  C1  1  0.49631475  0.00000000  0.49729578  1
  C  C2  1  0.59851815  0.50000000  0.19184911  1
  C  C3  1  0.89737445  0.00000000  0.29215061  1
  C  C4  1  0.99908865  0.50000000  0.00204938  1
  C  C5  1  0.30112616  0.00000000  0.10285121  1
  C  C6  1  0.40269703  0.50000000  0.80722636  1
  C  C7  1  0.80391676  0.50000000  0.60024458  1
  C  C8  1  0.10267957  0.00000000  0.70139654  1
  C  C9  1  0.19513057  0.50000000  0.39597484  1
  Hf  Hf10  1  0.49841786  0.50000000  0.49473568  1
  Hf  Hf11  1  0.79931932  0.00000000  0.60164495  1
  Nb  Nb12  1  0.39724850  0.00000000  0.80753535  1
  Nb  Nb13  1  0.10385221  0.50000000  0.70889975  1
  Ta  Ta14  1  0.20062456  0.00000000  0.39540909  1
  Ta  Ta15  1  0.89825857  0.50000000  0.29442955  1
  Ti  Ti16  1  0.30341977  0.50000000  0.09939296  1
  Ti  Ti17  1  0.59445350  0.00000000  0.19377671  1
  W  W18  1  0.68954335  0.50000000  0.90147945  1
  W  W19  1  0.01333412  0.00000000  0.00399622  1
