# generated using pymatgen
data_HfTaTiNbWC5
_symmetry_space_group_name_H-M   'P 1'
_cell_length_a   7.07600000
_cell_length_b   4.47200000
_cell_length_c   7.07200000
_cell_angle_alpha   90.00000000
_cell_angle_beta   90.00000000
_cell_angle_gamma   90.00000000
_symmetry_Int_Tables_number   1
_chemical_formula_structural   HfTaTiNbWC5
_chemical_formula_sum   'Hf2 Ta2 Ti2 Nb2 W2 C10'
_cell_volume   223.78546278
_cell_formula_units_Z   2
loop_
 _symmetry_equiv_pos_site_id
 _symmetry_equiv_pos_as_xyz
  1  'x, y, z'
loop_
 _atom_site_type_symbol
 _atom_site_label
 _atom_site_symmetry_multiplicity
 _atom_site_fract_x
 _atom_site_fract_y
 _atom_site_fract_z
 _atom_site_occupancy
  C  C0  1  0.70471435  0.00000000  0.90770242  1
  C  C1  1  0.49628356  0.00000000  0.49736383  1
  C  C2  1  0.59860316  0.50000000  0.19176578  1
  C  C3  1  0.89752618  0.00000000  0.29212639  1
  C  C4  1  0.99907649  0.50000000  0.00200065  1
  C  C5  1  0.30113213  0.00000000  0.10297363  1
  C  C6  1  0.40258103  0.50000000  0.80721468  1
  C  C7  1  0.80388073  0.50000000  0.60033463  1
  C  C8  1  0.10267924  0.00000000  0.70147470  1
  C  C9  1  0.19512588  0.50000000  0.39597927  1
  Hf  Hf10  1  0.49849482  0.50000000  0.49464178  1
  Hf  Hf11  1  0.79924322  0.00000000  0.60167114  1
  Nb  Nb12  1  0.39720580  0.00000000  0.80748235  1
  Nb  Nb13  1  0.10389296  0.50000000  0.70910855  1
  Ta  Ta14  1  0.20076528  0.00000000  0.39544127  1
  Ta  Ta15  1  0.89833994  0.50000000  0.29428007  1
  Ti  Ti16  1  0.30332532  0.50000000  0.09933063  1
  Ti  Ti17  1  0.59440542  0.00000000  0.19368444  1
  W  W18  1  0.68921526  0.50000000  0.90141514  1
  W  W19  1  0.01350924  0.00000000  0.00402862  1
