# generated using pymatgen
data_HfTaTiNbWC5
_symmetry_space_group_name_H-M   'P 1'
_cell_length_a   7.06900000
_cell_length_b   4.46500000
_cell_length_c   7.06500000
_cell_angle_alpha   90.00000000
_cell_angle_beta   90.00000000
_cell_angle_gamma   90.00000000
_symmetry_Int_Tables_number   1
_chemical_formula_structural   HfTaTiNbWC5
_chemical_formula_sum   'Hf2 Ta2 Ti2 Nb2 W2 C10'
_cell_volume   222.99319553
_cell_formula_units_Z   2
loop_
 _symmetry_equiv_pos_site_id
 _symmetry_equiv_pos_as_xyz
  1  'x, y, z'
loop_
 _atom_site_type_symbol
 _atom_site_label
 _atom_site_symmetry_multiplicity
 _atom_site_fract_x
 _atom_site_fract_y
 _atom_site_fract_z
 _atom_site_occupancy
  C  C0  1  0.70469213  0.00000000  0.90769362  1
  C  C1  1  0.49632188  0.00000000  0.49728428  1
  C  C2  1  0.59849178  0.50000000  0.19186055  1
  C  C3  1  0.89733974  0.00000000  0.29215131  1
  C  C4  1  0.99910437  0.50000000  0.00204676  1
  C  C5  1  0.30114170  0.00000000  0.10285163  1
  C  C6  1  0.40270194  0.50000000  0.80723074  1
  C  C7  1  0.80391853  0.50000000  0.60024675  1
  C  C8  1  0.10268359  0.00000000  0.70138540  1
  C  C9  1  0.19513234  0.50000000  0.39596216  1
  Hf  Hf10  1  0.49841911  0.50000000  0.49475223  1
  Hf  Hf11  1  0.79931985  0.00000000  0.60164302  1
  Nb  Nb12  1  0.39726989  0.00000000  0.80752611  1
  Nb  Nb13  1  0.10384961  0.50000000  0.70886380  1
  Ta  Ta14  1  0.20060358  0.00000000  0.39541830  1
  Ta  Ta15  1  0.89822590  0.50000000  0.29445378  1
  Ti  Ti16  1  0.30341243  0.50000000  0.09939546  1
  Ti  Ti17  1  0.59445322  0.00000000  0.19380467  1
  W  W18  1  0.68961364  0.50000000  0.90147856  1
  W  W19  1  0.01330478  0.00000000  0.00397085  1
