# generated using pymatgen
data_HfTaTiNbWC5
_symmetry_space_group_name_H-M   'P 1'
_cell_length_a   7.07500000
_cell_length_b   4.47100000
_cell_length_c   7.07100000
_cell_angle_alpha   90.00000000
_cell_angle_beta   90.00000000
_cell_angle_gamma   90.00000000
_symmetry_Int_Tables_number   1
_chemical_formula_structural   HfTaTiNbWC5
_chemical_formula_sum   'Hf2 Ta2 Ti2 Nb2 W2 C10'
_cell_volume   223.67217007
_cell_formula_units_Z   2
loop_
 _symmetry_equiv_pos_site_id
 _symmetry_equiv_pos_as_xyz
  1  'x, y, z'
loop_
 _atom_site_type_symbol
 _atom_site_label
 _atom_site_symmetry_multiplicity
 _atom_site_fract_x
 _atom_site_fract_y
 _atom_site_fract_z
 _atom_site_occupancy
  C  C0  1  0.70472237  0.00000000  0.90770808  1
  C  C1  1  0.49628638  0.00000000  0.49736114  1
  C  C2  1  0.59859172  0.50000000  0.19177222  1
  C  C3  1  0.89750696  0.00000000  0.29212735  1
  C  C4  1  0.99908352  0.50000000  0.00199741  1
  C  C5  1  0.30114092  0.00000000  0.10297364  1
  C  C6  1  0.40258156  0.50000000  0.80721822  1
  C  C7  1  0.80388223  0.50000000  0.60033630  1
  C  C8  1  0.10267984  0.00000000  0.70147006  1
  C  C9  1  0.19512658  0.50000000  0.39597239  1
  Hf  Hf10  1  0.49849350  0.50000000  0.49465057  1
  Hf  Hf11  1  0.79924162  0.00000000  0.60167038  1
  Nb  Nb12  1  0.39721667  0.00000000  0.80747806  1
  Nb  Nb13  1  0.10389531  0.50000000  0.70908940  1
  Ta  Ta14  1  0.20075605  0.00000000  0.39544298  1
  Ta  Ta15  1  0.89832321  0.50000000  0.29428978  1
  Ti  Ti16  1  0.30332035  0.50000000  0.09933212  1
  Ti  Ti17  1  0.59440857  0.00000000  0.19369922  1
  W  W18  1  0.68924709  0.50000000  0.90141405  1
  W  W19  1  0.01349553  0.00000000  0.00401666  1
