# generated using pymatgen
data_HfTaTiNbWC5
_symmetry_space_group_name_H-M   'P 1'
_cell_length_a   7.07000000
_cell_length_b   4.46600000
_cell_length_c   7.06600000
_cell_angle_alpha   90.00000000
_cell_angle_beta   90.00000000
_cell_angle_gamma   90.00000000
_symmetry_Int_Tables_number   1
_chemical_formula_structural   HfTaTiNbWC5
_chemical_formula_sum   'Hf2 Ta2 Ti2 Nb2 W2 C10'
_cell_volume   223.10626492
_cell_formula_units_Z   2
loop_
 _symmetry_equiv_pos_site_id
 _symmetry_equiv_pos_as_xyz
  1  'x, y, z'
loop_
 _atom_site_type_symbol
 _atom_site_label
 _atom_site_symmetry_multiplicity
 _atom_site_fract_x
 _atom_site_fract_y
 _atom_site_fract_z
 _atom_site_occupancy
  C  C0  1  0.70468523  0.00000000  0.90768704  1
  C  C1  1  0.49632170  0.00000000  0.49729051  1
  C  C2  1  0.59850274  0.50000000  0.19185319  1
  C  C3  1  0.89735585  0.00000000  0.29214965  1
  C  C4  1  0.99909628  0.50000000  0.00204843  1
  C  C5  1  0.30113005  0.00000000  0.10285214  1
  C  C6  1  0.40270272  0.50000000  0.80722904  1
  C  C7  1  0.80391606  0.50000000  0.60024511  1
  C  C8  1  0.10268139  0.00000000  0.70138977  1
  C  C9  1  0.19512996  0.50000000  0.39597041  1
  Hf  Hf10  1  0.49841788  0.50000000  0.49474494  1
  Hf  Hf11  1  0.79931915  0.00000000  0.60164280  1
  Nb  Nb12  1  0.39726037  0.00000000  0.80753322  1
  Nb  Nb13  1  0.10384860  0.50000000  0.70887994  1
  Ta  Ta14  1  0.20061193  0.00000000  0.39541310  1
  Ta  Ta15  1  0.89824129  0.50000000  0.29444329  1
  Ti  Ti16  1  0.30342334  0.50000000  0.09939131  1
  Ti  Ti17  1  0.59445801  0.00000000  0.19379230  1
  W  W18  1  0.68958151  0.50000000  0.90147987  1
  W  W19  1  0.01331596  0.00000000  0.00398393  1
