# generated using pymatgen
data_HfTaTiNbWC5
_symmetry_space_group_name_H-M   'P 1'
_cell_length_a   7.07400000
_cell_length_b   4.47000000
_cell_length_c   7.07000000
_cell_angle_alpha   90.00000000
_cell_angle_beta   90.00000000
_cell_angle_gamma   90.00000000
_symmetry_Int_Tables_number   1
_chemical_formula_structural   HfTaTiNbWC5
_chemical_formula_sum   'Hf2 Ta2 Ti2 Nb2 W2 C10'
_cell_volume   223.55891460
_cell_formula_units_Z   2
loop_
 _symmetry_equiv_pos_site_id
 _symmetry_equiv_pos_as_xyz
  1  'x, y, z'
loop_
 _atom_site_type_symbol
 _atom_site_label
 _atom_site_symmetry_multiplicity
 _atom_site_fract_x
 _atom_site_fract_y
 _atom_site_fract_z
 _atom_site_occupancy
  C  C0  1  0.70471282  0.00000000  0.90768125  1
  C  C1  1  0.49629749  0.00000000  0.49730229  1
  C  C2  1  0.59856147  0.50000000  0.19181496  1
  C  C3  1  0.89741064  0.00000000  0.29215367  1
  C  C4  1  0.99907336  0.50000000  0.00206395  1
  C  C5  1  0.30110185  0.00000000  0.10283596  1
  C  C6  1  0.40268748  0.50000000  0.80721379  1
  C  C7  1  0.80391508  0.50000000  0.60024702  1
  C  C8  1  0.10267674  0.00000000  0.70140075  1
  C  C9  1  0.19512686  0.50000000  0.39598677  1
  Hf  Hf10  1  0.49843668  0.50000000  0.49471171  1
  Hf  Hf11  1  0.79930563  0.00000000  0.60168674  1
  Nb  Nb12  1  0.39718038  0.00000000  0.80756225  1
  Nb  Nb13  1  0.10385441  0.50000000  0.70893256  1
  Ta  Ta14  1  0.20064531  0.00000000  0.39538288  1
  Ta  Ta15  1  0.89830936  0.50000000  0.29441624  1
  Ti  Ti16  1  0.30340935  0.50000000  0.09937701  1
  Ti  Ti17  1  0.59445287  0.00000000  0.19373098  1
  W  W18  1  0.68950611  0.50000000  0.90150185  1
  W  W19  1  0.01333610  0.00000000  0.00401737  1
