# generated using pymatgen
data_HfTaTiNbWC5
_symmetry_space_group_name_H-M   'P 1'
_cell_length_a   7.06600000
_cell_length_b   4.46200000
_cell_length_c   7.06200000
_cell_angle_alpha   90.00000000
_cell_angle_beta   90.00000000
_cell_angle_gamma   90.00000000
_symmetry_Int_Tables_number   1
_chemical_formula_structural   HfTaTiNbWC5
_chemical_formula_sum   'Hf2 Ta2 Ti2 Nb2 W2 C10'
_cell_volume   222.65421050
_cell_formula_units_Z   2
loop_
 _symmetry_equiv_pos_site_id
 _symmetry_equiv_pos_as_xyz
  1  'x, y, z'
loop_
 _atom_site_type_symbol
 _atom_site_label
 _atom_site_symmetry_multiplicity
 _atom_site_fract_x
 _atom_site_fract_y
 _atom_site_fract_z
 _atom_site_occupancy
  C  C0  1  0.70470854  0.00000000  0.90771042  1
  C  C1  1  0.49633073  0.00000000  0.49727209  1
  C  C2  1  0.59845410  0.50000000  0.19187649  1
  C  C3  1  0.89728070  0.00000000  0.29214869  1
  C  C4  1  0.99913231  0.50000000  0.00205607  1
  C  C5  1  0.30116651  0.00000000  0.10285349  1
  C  C6  1  0.40270394  0.50000000  0.80723826  1
  C  C7  1  0.80391852  0.50000000  0.60024733  1
  C  C8  1  0.10268179  0.00000000  0.70137222  1
  C  C9  1  0.19513420  0.50000000  0.39594177  1
  Hf  Hf10  1  0.49841092  0.50000000  0.49478341  1
  Hf  Hf11  1  0.79931979  0.00000000  0.60163620  1
  Nb  Nb12  1  0.39731129  0.00000000  0.80750416  1
  Nb  Nb13  1  0.10385834  0.50000000  0.70881025  1
  Ta  Ta14  1  0.20056995  0.00000000  0.39543694  1
  Ta  Ta15  1  0.89817835  0.50000000  0.29448074  1
  Ti  Ti16  1  0.30339594  0.50000000  0.09939654  1
  Ti  Ti17  1  0.59445922  0.00000000  0.19385305  1
  W  W18  1  0.68971543  0.50000000  0.90146658  1
  W  W19  1  0.01326942  0.00000000  0.00393530  1
