# generated using pymatgen
data_HfTaTiNbMoC5
_symmetry_space_group_name_H-M   'P 1'
_cell_length_a   7.07750000
_cell_length_b   4.48050000
_cell_length_c   7.07650000
_cell_angle_alpha   90.00000000
_cell_angle_beta   90.00000000
_cell_angle_gamma   90.00000000
_symmetry_Int_Tables_number   1
_chemical_formula_structural   HfTaTiNbMoC5
_chemical_formula_sum   'Hf2 Ta2 Ti2 Nb2 Mo2 C10'
_cell_volume   224.40104276
_cell_formula_units_Z   2
loop_
 _symmetry_equiv_pos_site_id
 _symmetry_equiv_pos_as_xyz
  1  'x, y, z'
loop_
 _atom_site_type_symbol
 _atom_site_label
 _atom_site_symmetry_multiplicity
 _atom_site_fract_x
 _atom_site_fract_y
 _atom_site_fract_z
 _atom_site_occupancy
  C  C0  1  0.70249085  0.00000000  0.90754976  1
  C  C1  1  0.49559047  0.00000000  0.49803304  1
  C  C2  1  0.59850505  0.50000000  0.19344416  1
  C  C3  1  0.89737375  0.00000000  0.29332384  1
  C  C4  1  0.00056741  0.50000000  0.00222253  1
  C  C5  1  0.30368331  0.00000000  0.10328779  1
  C  C6  1  0.39960597  0.50000000  0.80756574  1
  C  C7  1  0.80497588  0.50000000  0.59828247  1
  C  C8  1  0.10348481  0.00000000  0.69966739  1
  C  C9  1  0.19535049  0.50000000  0.39517289  1
  Hf  Hf10  1  0.49896435  0.50000000  0.49604832  1
  Hf  Hf11  1  0.79957210  0.00000000  0.60342836  1
  Nb  Nb12  1  0.39663698  0.00000000  0.80871806  1
  Nb  Nb13  1  0.10114678  0.50000000  0.70989241  1
  Ta  Ta14  1  0.20032617  0.00000000  0.39313724  1
  Ta  Ta15  1  0.89793338  0.50000000  0.29219006  1
  Ti  Ti16  1  0.30473024  0.50000000  0.09903709  1
  Ti  Ti17  1  0.59765306  0.00000000  0.19362976  1
  Mo  Mo18  1  0.68895234  0.50000000  0.90218902  1
  Mo  Mo19  1  0.01245661  0.00000000  0.00320009  1
