# generated using pymatgen
data_HfTaTiNbWC5
_symmetry_space_group_name_H-M   'P 1'
_cell_length_a   7.06800000
_cell_length_b   4.46400000
_cell_length_c   7.06400000
_cell_angle_alpha   90.00000000
_cell_angle_beta   90.00000000
_cell_angle_gamma   90.00000000
_symmetry_Int_Tables_number   1
_chemical_formula_structural   HfTaTiNbWC5
_chemical_formula_sum   'Hf2 Ta2 Ti2 Nb2 W2 C10'
_cell_volume   222.88016333
_cell_formula_units_Z   2
loop_
 _symmetry_equiv_pos_site_id
 _symmetry_equiv_pos_as_xyz
  1  'x, y, z'
loop_
 _atom_site_type_symbol
 _atom_site_label
 _atom_site_symmetry_multiplicity
 _atom_site_fract_x
 _atom_site_fract_y
 _atom_site_fract_z
 _atom_site_occupancy
  C  C0  1  0.70472078  0.00000000  0.90771168  1
  C  C1  1  0.49632125  0.00000000  0.49728227  1
  C  C2  1  0.59849530  0.50000000  0.19185430  1
  C  C3  1  0.89731243  0.00000000  0.29216041  1
  C  C4  1  0.99911387  0.50000000  0.00204947  1
  C  C5  1  0.30116049  0.00000000  0.10284213  1
  C  C6  1  0.40268267  0.50000000  0.80723199  1
  C  C7  1  0.80391562  0.50000000  0.60026325  1
  C  C8  1  0.10267599  0.00000000  0.70138507  1
  C  C9  1  0.19513578  0.50000000  0.39594656  1
  Hf  Hf10  1  0.49842678  0.50000000  0.49475120  1
  Hf  Hf11  1  0.79931342  0.00000000  0.60166967  1
  Nb  Nb12  1  0.39726650  0.00000000  0.80752027  1
  Nb  Nb13  1  0.10385833  0.50000000  0.70884262  1
  Ta  Ta14  1  0.20058997  0.00000000  0.39542484  1
  Ta  Ta15  1  0.89821231  0.50000000  0.29446555  1
  Ti  Ti16  1  0.30337683  0.50000000  0.09937883  1
  Ti  Ti17  1  0.59445800  0.00000000  0.19380849  1
  W  W18  1  0.68967557  0.50000000  0.90148137  1
  W  W19  1  0.01328811  0.00000000  0.00395003  1
