# generated using pymatgen
data_HfTaTiNbMoC5
_symmetry_space_group_name_H-M   'P 1'
_cell_length_a   7.08250000
_cell_length_b   4.48550000
_cell_length_c   7.08150000
_cell_angle_alpha   90.00000000
_cell_angle_beta   90.00000000
_cell_angle_gamma   90.00000000
_symmetry_Int_Tables_number   1
_chemical_formula_structural   HfTaTiNbMoC5
_chemical_formula_sum   'Hf2 Ta2 Ti2 Nb2 Mo2 C10'
_cell_volume   224.96901338
_cell_formula_units_Z   2
loop_
 _symmetry_equiv_pos_site_id
 _symmetry_equiv_pos_as_xyz
  1  'x, y, z'
loop_
 _atom_site_type_symbol
 _atom_site_label
 _atom_site_symmetry_multiplicity
 _atom_site_fract_x
 _atom_site_fract_y
 _atom_site_fract_z
 _atom_site_occupancy
  C  C0  1  0.70244085  0.00000000  0.90752296  1
  C  C1  1  0.49557067  0.00000000  0.49804449  1
  C  C2  1  0.59856607  0.50000000  0.19343555  1
  C  C3  1  0.89745935  0.00000000  0.29332715  1
  C  C4  1  0.00053862  0.50000000  0.00222500  1
  C  C5  1  0.30366937  0.00000000  0.10328746  1
  C  C6  1  0.39958131  0.50000000  0.80755325  1
  C  C7  1  0.80497502  0.50000000  0.59827540  1
  C  C8  1  0.10348052  0.00000000  0.69968682  1
  C  C9  1  0.19535403  0.50000000  0.39518149  1
  Hf  Hf10  1  0.49897156  0.50000000  0.49601680  1
  Hf  Hf11  1  0.79956771  0.00000000  0.60344176  1
  Nb  Nb12  1  0.39656577  0.00000000  0.80874562  1
  Nb  Nb13  1  0.10113405  0.50000000  0.70998218  1
  Ta  Ta14  1  0.20038304  0.00000000  0.39309876  1
  Ta  Ta15  1  0.89801168  0.50000000  0.29214189  1
  Ti  Ti16  1  0.30476452  0.50000000  0.09902085  1
  Ti  Ti17  1  0.59766735  0.00000000  0.19356622  1
  Mo  Mo18  1  0.68876971  0.50000000  0.90220428  1
  Mo  Mo19  1  0.01252880  0.00000000  0.00326207  1
