# generated using pymatgen
data_HfTaTiNbMoC5
_symmetry_space_group_name_H-M   'P 1'
_cell_length_a   7.07850000
_cell_length_b   4.48150000
_cell_length_c   7.07750000
_cell_angle_alpha   90.00000000
_cell_angle_beta   90.00000000
_cell_angle_gamma   90.00000000
_symmetry_Int_Tables_number   1
_chemical_formula_structural   HfTaTiNbMoC5
_chemical_formula_sum   'Hf2 Ta2 Ti2 Nb2 Mo2 C10'
_cell_volume   224.51456233
_cell_formula_units_Z   2
loop_
 _symmetry_equiv_pos_site_id
 _symmetry_equiv_pos_as_xyz
  1  'x, y, z'
loop_
 _atom_site_type_symbol
 _atom_site_label
 _atom_site_symmetry_multiplicity
 _atom_site_fract_x
 _atom_site_fract_y
 _atom_site_fract_z
 _atom_site_occupancy
  C  C0  1  0.70247471  0.00000000  0.90754915  1
  C  C1  1  0.49558480  0.00000000  0.49803501  1
  C  C2  1  0.59852067  0.50000000  0.19344959  1
  C  C3  1  0.89738464  0.00000000  0.29333258  1
  C  C4  1  0.00055875  0.50000000  0.00222363  1
  C  C5  1  0.30367285  0.00000000  0.10328137  1
  C  C6  1  0.39960663  0.50000000  0.80756821  1
  C  C7  1  0.80497967  0.50000000  0.59827982  1
  C  C8  1  0.10348284  0.00000000  0.69966605  1
  C  C9  1  0.19535657  0.50000000  0.39517134  1
  Hf  Hf10  1  0.49896734  0.50000000  0.49604719  1
  Hf  Hf11  1  0.79957407  0.00000000  0.60343279  1
  Nb  Nb12  1  0.39661153  0.00000000  0.80872585  1
  Nb  Nb13  1  0.10113974  0.50000000  0.70988975  1
  Ta  Ta14  1  0.20034054  0.00000000  0.39311803  1
  Ta  Ta15  1  0.89794968  0.50000000  0.29219069  1
  Ti  Ti16  1  0.30474401  0.50000000  0.09902909  1
  Ti  Ti17  1  0.59766736  0.00000000  0.19361854  1
  Mo  Mo18  1  0.68893771  0.50000000  0.90219997  1
  Mo  Mo19  1  0.01244588  0.00000000  0.00321136  1
