# generated using pymatgen
data_HfTaTiNbMoC5
_symmetry_space_group_name_H-M   'P 1'
_cell_length_a   7.08050000
_cell_length_b   4.48350000
_cell_length_c   7.07950000
_cell_angle_alpha   90.00000000
_cell_angle_beta   90.00000000
_cell_angle_gamma   90.00000000
_symmetry_Int_Tables_number   1
_chemical_formula_structural   HfTaTiNbMoC5
_chemical_formula_sum   'Hf2 Ta2 Ti2 Nb2 Mo2 C10'
_cell_volume   224.74171328
_cell_formula_units_Z   2
loop_
 _symmetry_equiv_pos_site_id
 _symmetry_equiv_pos_as_xyz
  1  'x, y, z'
loop_
 _atom_site_type_symbol
 _atom_site_label
 _atom_site_symmetry_multiplicity
 _atom_site_fract_x
 _atom_site_fract_y
 _atom_site_fract_z
 _atom_site_occupancy
  C  C0  1  0.70245767  0.00000000  0.90753655  1
  C  C1  1  0.49557421  0.00000000  0.49804016  1
  C  C2  1  0.59854624  0.50000000  0.19344263  1
  C  C3  1  0.89742250  0.00000000  0.29332960  1
  C  C4  1  0.00055179  0.50000000  0.00222468  1
  C  C5  1  0.30367412  0.00000000  0.10328779  1
  C  C6  1  0.39959144  0.50000000  0.80756114  1
  C  C7  1  0.80497449  0.50000000  0.59827458  1
  C  C8  1  0.10347928  0.00000000  0.69967466  1
  C  C9  1  0.19535489  0.50000000  0.39517752  1
  Hf  Hf10  1  0.49896976  0.50000000  0.49603485  1
  Hf  Hf11  1  0.79956500  0.00000000  0.60343501  1
  Nb  Nb12  1  0.39658872  0.00000000  0.80873309  1
  Nb  Nb13  1  0.10113460  0.50000000  0.70994134  1
  Ta  Ta14  1  0.20035937  0.00000000  0.39310852  1
  Ta  Ta15  1  0.89798006  0.50000000  0.29216575  1
  Ti  Ti16  1  0.30475831  0.50000000  0.09902739  1
  Ti  Ti17  1  0.59767103  0.00000000  0.19359027  1
  Mo  Mo18  1  0.68885418  0.50000000  0.90220122  1
  Mo  Mo19  1  0.01249234  0.00000000  0.00323324  1
