# generated using pymatgen
data_HfTaTiNbMoC5
_symmetry_space_group_name_H-M   'P 1'
_cell_length_a   7.07550000
_cell_length_b   4.47850000
_cell_length_c   7.07450000
_cell_angle_alpha   90.00000000
_cell_angle_beta   90.00000000
_cell_angle_gamma   90.00000000
_symmetry_Int_Tables_number   1
_chemical_formula_structural   HfTaTiNbMoC5
_chemical_formula_sum   'Hf2 Ta2 Ti2 Nb2 Mo2 C10'
_cell_volume   224.17411544
_cell_formula_units_Z   2
loop_
 _symmetry_equiv_pos_site_id
 _symmetry_equiv_pos_as_xyz
  1  'x, y, z'
loop_
 _atom_site_type_symbol
 _atom_site_label
 _atom_site_symmetry_multiplicity
 _atom_site_fract_x
 _atom_site_fract_y
 _atom_site_fract_z
 _atom_site_occupancy
  C  C0  1  0.70250004  0.00000000  0.90756658  1
  C  C1  1  0.49559368  0.00000000  0.49803039  1
  C  C2  1  0.59848685  0.50000000  0.19345911  1
  C  C3  1  0.89733202  0.00000000  0.29333036  1
  C  C4  1  0.00058243  0.50000000  0.00221938  1
  C  C5  1  0.30368063  0.00000000  0.10327845  1
  C  C6  1  0.39962563  0.50000000  0.80757541  1
  C  C7  1  0.80498188  0.50000000  0.59828547  1
  C  C8  1  0.10348385  0.00000000  0.69965071  1
  C  C9  1  0.19535890  0.50000000  0.39516186  1
  Hf  Hf10  1  0.49896376  0.50000000  0.49607353  1
  Hf  Hf11  1  0.79957052  0.00000000  0.60342838  1
  Nb  Nb12  1  0.39664890  0.00000000  0.80870817  1
  Nb  Nb13  1  0.10114253  0.50000000  0.70983201  1
  Ta  Ta14  1  0.20030575  0.00000000  0.39313331  1
  Ta  Ta15  1  0.89790424  0.50000000  0.29222190  1
  Ti  Ti16  1  0.30472950  0.50000000  0.09903685  1
  Ti  Ti17  1  0.59766419  0.00000000  0.19366261  1
  Mo  Mo18  1  0.68905582  0.50000000  0.90219497  1
  Mo  Mo19  1  0.01238888  0.00000000  0.00317054  1
