# generated using pymatgen
data_HfTaTiNbMoC5
_symmetry_space_group_name_H-M   'P 1'
_cell_length_a   7.07450000
_cell_length_b   4.47750000
_cell_length_c   7.07350000
_cell_angle_alpha   90.00000000
_cell_angle_beta   90.00000000
_cell_angle_gamma   90.00000000
_symmetry_Int_Tables_number   1
_chemical_formula_structural   HfTaTiNbMoC5
_chemical_formula_sum   'Hf2 Ta2 Ti2 Nb2 Mo2 C10'
_cell_volume   224.06070767
_cell_formula_units_Z   2
loop_
 _symmetry_equiv_pos_site_id
 _symmetry_equiv_pos_as_xyz
  1  'x, y, z'
loop_
 _atom_site_type_symbol
 _atom_site_label
 _atom_site_symmetry_multiplicity
 _atom_site_fract_x
 _atom_site_fract_y
 _atom_site_fract_z
 _atom_site_occupancy
  C  C0  1  0.70251451  0.00000000  0.90757437  1
  C  C1  1  0.49559743  0.00000000  0.49802504  1
  C  C2  1  0.59847164  0.50000000  0.19345844  1
  C  C3  1  0.89731348  0.00000000  0.29333022  1
  C  C4  1  0.00058965  0.50000000  0.00222163  1
  C  C5  1  0.30368788  0.00000000  0.10327418  1
  C  C6  1  0.39963211  0.50000000  0.80757176  1
  C  C7  1  0.80497665  0.50000000  0.59829032  1
  C  C8  1  0.10348563  0.00000000  0.69964670  1
  C  C9  1  0.19535235  0.50000000  0.39515639  1
  Hf  Hf10  1  0.49895904  0.50000000  0.49607591  1
  Hf  Hf11  1  0.79957131  0.00000000  0.60343071  1
  Nb  Nb12  1  0.39666836  0.00000000  0.80869803  1
  Nb  Nb13  1  0.10114450  0.50000000  0.70982695  1
  Ta  Ta14  1  0.20029223  0.00000000  0.39313994  1
  Ta  Ta15  1  0.89788966  0.50000000  0.29223066  1
  Ti  Ti16  1  0.30472000  0.50000000  0.09903526  1
  Ti  Ti17  1  0.59765805  0.00000000  0.19368059  1
  Mo  Mo18  1  0.68908823  0.50000000  0.90219375  1
  Mo  Mo19  1  0.01238729  0.00000000  0.00315919  1
