# generated using pymatgen
data_HfTaTiNbMoC5
_symmetry_space_group_name_H-M   'P 1'
_cell_length_a   7.06950000
_cell_length_b   4.47250000
_cell_length_c   7.06850000
_cell_angle_alpha   90.00000000
_cell_angle_beta   90.00000000
_cell_angle_gamma   90.00000000
_symmetry_Int_Tables_number   1
_chemical_formula_structural   HfTaTiNbMoC5
_chemical_formula_sum   'Hf2 Ta2 Ti2 Nb2 Mo2 C10'
_cell_volume   223.49422745
_cell_formula_units_Z   2
loop_
 _symmetry_equiv_pos_site_id
 _symmetry_equiv_pos_as_xyz
  1  'x, y, z'
loop_
 _atom_site_type_symbol
 _atom_site_label
 _atom_site_symmetry_multiplicity
 _atom_site_fract_x
 _atom_site_fract_y
 _atom_site_fract_z
 _atom_site_occupancy
  C  C0  1  0.70255504  0.00000000  0.90760722  1
  C  C1  1  0.49561914  0.00000000  0.49800593  1
  C  C2  1  0.59841145  0.50000000  0.19347655  1
  C  C3  1  0.89722105  0.00000000  0.29332950  1
  C  C4  1  0.00062362  0.50000000  0.00222054  1
  C  C5  1  0.30369219  0.00000000  0.10326179  1
  C  C6  1  0.39966498  0.50000000  0.80758596  1
  C  C7  1  0.80498428  0.50000000  0.59830898  1
  C  C8  1  0.10349408  0.00000000  0.69962489  1
  C  C9  1  0.19535514  0.50000000  0.39513891  1
  Hf  Hf10  1  0.49895154  0.50000000  0.49611455  1
  Hf  Hf11  1  0.79958013  0.00000000  0.60342301  1
  Nb  Nb12  1  0.39672848  0.00000000  0.80867194  1
  Nb  Nb13  1  0.10115610  0.50000000  0.70973138  1
  Ta  Ta14  1  0.20023845  0.00000000  0.39316085  1
  Ta  Ta15  1  0.89781525  0.50000000  0.29228192  1
  Ti  Ti16  1  0.30469238  0.50000000  0.09903923  1
  Ti  Ti17  1  0.59764727  0.00000000  0.19375389  1
  Mo  Mo18  1  0.68928177  0.50000000  0.90219010  1
  Mo  Mo19  1  0.01228768  0.00000000  0.00309282  1
