# generated using pymatgen
data_HfTaTiNbMoC5
_symmetry_space_group_name_H-M   'P 1'
_cell_length_a   7.07150000
_cell_length_b   4.47450000
_cell_length_c   7.07050000
_cell_angle_alpha   90.00000000
_cell_angle_beta   90.00000000
_cell_angle_gamma   90.00000000
_symmetry_Int_Tables_number   1
_chemical_formula_structural   HfTaTiNbMoC5
_chemical_formula_sum   'Hf2 Ta2 Ti2 Nb2 Mo2 C10'
_cell_volume   223.72070784
_cell_formula_units_Z   2
loop_
 _symmetry_equiv_pos_site_id
 _symmetry_equiv_pos_as_xyz
  1  'x, y, z'
loop_
 _atom_site_type_symbol
 _atom_site_label
 _atom_site_symmetry_multiplicity
 _atom_site_fract_x
 _atom_site_fract_y
 _atom_site_fract_z
 _atom_site_occupancy
  C  C0  1  0.70253846  0.00000000  0.90759463  1
  C  C1  1  0.49561090  0.00000000  0.49801102  1
  C  C2  1  0.59843624  0.50000000  0.19346778  1
  C  C3  1  0.89725713  0.00000000  0.29333057  1
  C  C4  1  0.00060978  0.50000000  0.00222206  1
  C  C5  1  0.30368900  0.00000000  0.10326613  1
  C  C6  1  0.39965250  0.50000000  0.80758036  1
  C  C7  1  0.80498080  0.50000000  0.59830328  1
  C  C8  1  0.10349116  0.00000000  0.69963543  1
  C  C9  1  0.19535373  0.50000000  0.39514628  1
  Hf  Hf10  1  0.49895530  0.50000000  0.49609902  1
  Hf  Hf11  1  0.79957697  0.00000000  0.60342411  1
  Nb  Nb12  1  0.39670252  0.00000000  0.80868332  1
  Nb  Nb13  1  0.10115159  0.50000000  0.70977013  1
  Ta  Ta14  1  0.20026087  0.00000000  0.39315147  1
  Ta  Ta15  1  0.89784585  0.50000000  0.29226236  1
  Ti  Ti16  1  0.30470413  0.50000000  0.09903695  1
  Ti  Ti17  1  0.59765346  0.00000000  0.19372364  1
  Mo  Mo18  1  0.68920625  0.50000000  0.90219181  1
  Mo  Mo19  1  0.01232336  0.00000000  0.00311968  1
