# generated using pymatgen
data_HfTaTiNbMoC5
_symmetry_space_group_name_H-M   'P 1'
_cell_length_a   7.06750000
_cell_length_b   4.47050000
_cell_length_c   7.06650000
_cell_angle_alpha   90.00000000
_cell_angle_beta   90.00000000
_cell_angle_gamma   90.00000000
_symmetry_Int_Tables_number   1
_chemical_formula_structural   HfTaTiNbMoC5
_chemical_formula_sum   'Hf2 Ta2 Ti2 Nb2 Mo2 C10'
_cell_volume   223.26789596
_cell_formula_units_Z   2
loop_
 _symmetry_equiv_pos_site_id
 _symmetry_equiv_pos_as_xyz
  1  'x, y, z'
loop_
 _atom_site_type_symbol
 _atom_site_label
 _atom_site_symmetry_multiplicity
 _atom_site_fract_x
 _atom_site_fract_y
 _atom_site_fract_z
 _atom_site_occupancy
  C  C0  1  0.70256950  0.00000000  0.90762197  1
  C  C1  1  0.49562398  0.00000000  0.49800051  1
  C  C2  1  0.59838888  0.50000000  0.19348375  1
  C  C3  1  0.89718530  0.00000000  0.29332838  1
  C  C4  1  0.00063815  0.50000000  0.00221663  1
  C  C5  1  0.30370079  0.00000000  0.10325899  1
  C  C6  1  0.39967617  0.50000000  0.80758703  1
  C  C7  1  0.80498381  0.50000000  0.59831350  1
  C  C8  1  0.10349239  0.00000000  0.69961256  1
  C  C9  1  0.19535276  0.50000000  0.39513247  1
  Hf  Hf10  1  0.49894710  0.50000000  0.49612855  1
  Hf  Hf11  1  0.79958098  0.00000000  0.60342615  1
  Nb  Nb12  1  0.39675609  0.00000000  0.80865636  1
  Nb  Nb13  1  0.10116080  0.50000000  0.70969627  1
  Ta  Ta14  1  0.20021415  0.00000000  0.39317131  1
  Ta  Ta15  1  0.89778746  0.50000000  0.29230163  1
  Ti  Ti16  1  0.30468676  0.50000000  0.09904621  1
  Ti  Ti17  1  0.59763989  0.00000000  0.19378329  1
  Mo  Mo18  1  0.68934425  0.50000000  0.90218667  1
  Mo  Mo19  1  0.01227078  0.00000000  0.00306776  1
