# generated using pymatgen
data_HfTaTiNbMoC5
_symmetry_space_group_name_H-M   'P 1'
_cell_length_a   7.07250000
_cell_length_b   4.47550000
_cell_length_c   7.07150000
_cell_angle_alpha   90.00000000
_cell_angle_beta   90.00000000
_cell_angle_gamma   90.00000000
_symmetry_Int_Tables_number   1
_chemical_formula_structural   HfTaTiNbMoC5
_chemical_formula_sum   'Hf2 Ta2 Ti2 Nb2 Mo2 C10'
_cell_volume   223.83400387
_cell_formula_units_Z   2
loop_
 _symmetry_equiv_pos_site_id
 _symmetry_equiv_pos_as_xyz
  1  'x, y, z'
loop_
 _atom_site_type_symbol
 _atom_site_label
 _atom_site_symmetry_multiplicity
 _atom_site_fract_x
 _atom_site_fract_y
 _atom_site_fract_z
 _atom_site_occupancy
  C  C0  1  0.70253208  0.00000000  0.90758559  1
  C  C1  1  0.49560865  0.00000000  0.49801430  1
  C  C2  1  0.59844636  0.50000000  0.19346087  1
  C  C3  1  0.89727854  0.00000000  0.29333075  1
  C  C4  1  0.00059942  0.50000000  0.00222522  1
  C  C5  1  0.30368877  0.00000000  0.10326760  1
  C  C6  1  0.39964576  0.50000000  0.80757546  1
  C  C7  1  0.80497868  0.50000000  0.59829889  1
  C  C8  1  0.10349053  0.00000000  0.69964184  1
  C  C9  1  0.19535195  0.50000000  0.39515099  1
  Hf  Hf10  1  0.49895353  0.50000000  0.49608733  1
  Hf  Hf11  1  0.79957901  0.00000000  0.60342599  1
  Nb  Nb12  1  0.39669425  0.00000000  0.80869063  1
  Nb  Nb13  1  0.10114916  0.50000000  0.70979233  1
  Ta  Ta14  1  0.20027076  0.00000000  0.39315209  1
  Ta  Ta15  1  0.89786320  0.50000000  0.29225159  1
  Ti  Ti16  1  0.30470224  0.50000000  0.09903517  1
  Ti  Ti17  1  0.59765448  0.00000000  0.19370765  1
  Mo  Mo18  1  0.68916383  0.50000000  0.90219052  1
  Mo  Mo19  1  0.01234877  0.00000000  0.00313517  1
