# generated using pymatgen
data_HfTaTiNbMoC5
_symmetry_space_group_name_H-M   'P 1'
_cell_length_a   7.07350000
_cell_length_b   4.47650000
_cell_length_c   7.07250000
_cell_angle_alpha   90.00000000
_cell_angle_beta   90.00000000
_cell_angle_gamma   90.00000000
_symmetry_Int_Tables_number   1
_chemical_formula_structural   HfTaTiNbMoC5
_chemical_formula_sum   'Hf2 Ta2 Ti2 Nb2 Mo2 C10'
_cell_volume   223.94733715
_cell_formula_units_Z   2
loop_
 _symmetry_equiv_pos_site_id
 _symmetry_equiv_pos_as_xyz
  1  'x, y, z'
loop_
 _atom_site_type_symbol
 _atom_site_label
 _atom_site_symmetry_multiplicity
 _atom_site_fract_x
 _atom_site_fract_y
 _atom_site_fract_z
 _atom_site_occupancy
  C  C0  1  0.70252363  0.00000000  0.90758380  1
  C  C1  1  0.49560231  0.00000000  0.49802048  1
  C  C2  1  0.59845884  0.50000000  0.19346098  1
  C  C3  1  0.89729559  0.00000000  0.29333017  1
  C  C4  1  0.00059707  0.50000000  0.00222083  1
  C  C5  1  0.30368901  0.00000000  0.10327214  1
  C  C6  1  0.39963833  0.50000000  0.80757344  1
  C  C7  1  0.80497866  0.50000000  0.59829424  1
  C  C8  1  0.10348726  0.00000000  0.69964369  1
  C  C9  1  0.19535264  0.50000000  0.39515258  1
  Hf  Hf10  1  0.49895703  0.50000000  0.49608297  1
  Hf  Hf11  1  0.79957311  0.00000000  0.60342874  1
  Nb  Nb12  1  0.39668024  0.00000000  0.80869383  1
  Nb  Nb13  1  0.10114651  0.50000000  0.70980760  1
  Ta  Ta14  1  0.20028181  0.00000000  0.39314546  1
  Ta  Ta15  1  0.89787455  0.50000000  0.29224045  1
  Ti  Ti16  1  0.30471131  0.50000000  0.09903339  1
  Ti  Ti17  1  0.59765515  0.00000000  0.19369495  1
  Mo  Mo18  1  0.68913138  0.50000000  0.90219559  1
  Mo  Mo19  1  0.01236557  0.00000000  0.00314465  1
