# generated using pymatgen
data_HfTaTiNbMoC5
_symmetry_space_group_name_H-M   'P 1'
_cell_length_a   7.07050000
_cell_length_b   4.47350000
_cell_length_c   7.06950000
_cell_angle_alpha   90.00000000
_cell_angle_beta   90.00000000
_cell_angle_gamma   90.00000000
_symmetry_Int_Tables_number   1
_chemical_formula_structural   HfTaTiNbMoC5
_chemical_formula_sum   'Hf2 Ta2 Ti2 Nb2 Mo2 C10'
_cell_volume   223.60744903
_cell_formula_units_Z   2
loop_
 _symmetry_equiv_pos_site_id
 _symmetry_equiv_pos_as_xyz
  1  'x, y, z'
loop_
 _atom_site_type_symbol
 _atom_site_label
 _atom_site_symmetry_multiplicity
 _atom_site_fract_x
 _atom_site_fract_y
 _atom_site_fract_z
 _atom_site_occupancy
  C  C0  1  0.70254650  0.00000000  0.90759822  1
  C  C1  1  0.49561672  0.00000000  0.49800846  1
  C  C2  1  0.59842288  0.50000000  0.19347346  1
  C  C3  1  0.89723920  0.00000000  0.29332815  1
  C  C4  1  0.00061541  0.50000000  0.00221943  1
  C  C5  1  0.30368768  0.00000000  0.10326516  1
  C  C6  1  0.39965898  0.50000000  0.80758606  1
  C  C7  1  0.80498627  0.50000000  0.59830655  1
  C  C8  1  0.10349547  0.00000000  0.69963052  1
  C  C9  1  0.19535566  0.50000000  0.39514439  1
  Hf  Hf10  1  0.49895598  0.50000000  0.49610874  1
  Hf  Hf11  1  0.79957973  0.00000000  0.60342185  1
  Nb  Nb12  1  0.39671471  0.00000000  0.80868045  1
  Nb  Nb13  1  0.10115519  0.50000000  0.70974542  1
  Ta  Ta14  1  0.20025230  0.00000000  0.39315683  1
  Ta  Ta15  1  0.89782871  0.50000000  0.29227256  1
  Ti  Ti16  1  0.30469483  0.50000000  0.09903926  1
  Ti  Ti17  1  0.59764937  0.00000000  0.19373787  1
  Mo  Mo18  1  0.68924637  0.50000000  0.90219112  1
  Mo  Mo19  1  0.01229804  0.00000000  0.00310547  1
