# generated using pymatgen
data_HfTaTiNbMoC5
_symmetry_space_group_name_H-M   'P 1'
_cell_length_a   7.06570000
_cell_length_b   4.46870000
_cell_length_c   7.06470000
_cell_angle_alpha   90.00000000
_cell_angle_beta   90.00000000
_cell_angle_gamma   90.00000000
_symmetry_Int_Tables_number   1
_chemical_formula_structural   HfTaTiNbMoC5
_chemical_formula_sum   'Hf2 Ta2 Ti2 Nb2 Mo2 C10'
_cell_volume   223.06432487
_cell_formula_units_Z   2
loop_
 _symmetry_equiv_pos_site_id
 _symmetry_equiv_pos_as_xyz
  1  'x, y, z'
loop_
 _atom_site_type_symbol
 _atom_site_label
 _atom_site_symmetry_multiplicity
 _atom_site_fract_x
 _atom_site_fract_y
 _atom_site_fract_z
 _atom_site_occupancy
  C  C0  1  0.70258451  0.00000000  0.90763923  1
  C  C1  1  0.49562659  0.00000000  0.49799496  1
  C  C2  1  0.59837100  0.50000000  0.19349252  1
  C  C3  1  0.89715086  0.00000000  0.29333256  1
  C  C4  1  0.00065820  0.50000000  0.00221863  1
  C  C5  1  0.30370997  0.00000000  0.10325271  1
  C  C6  1  0.39968602  0.50000000  0.80758932  1
  C  C7  1  0.80498198  0.50000000  0.59832025  1
  C  C8  1  0.10348936  0.00000000  0.69960163  1
  C  C9  1  0.19535481  0.50000000  0.39512005  1
  Hf  Hf10  1  0.49894454  0.50000000  0.49614131  1
  Hf  Hf11  1  0.79957397  0.00000000  0.60342905  1
  Nb  Nb12  1  0.39677612  0.00000000  0.80864060  1
  Nb  Nb13  1  0.10115754  0.50000000  0.70966248  1
  Ta  Ta14  1  0.20019110  0.00000000  0.39317139  1
  Ta  Ta15  1  0.89775873  0.50000000  0.29232261  1
  Ti  Ti16  1  0.30468638  0.50000000  0.09904136  1
  Ti  Ti17  1  0.59764184  0.00000000  0.19381703  1
  Mo  Mo18  1  0.68942349  0.50000000  0.90218979  1
  Mo  Mo19  1  0.01223299  0.00000000  0.00304253  1
