# generated using pymatgen
data_HfTaTiNbMoC5
_symmetry_space_group_name_H-M   'P 1'
_cell_length_a   7.09150000
_cell_length_b   4.49450000
_cell_length_c   7.09050000
_cell_angle_alpha   90.00000000
_cell_angle_beta   90.00000000
_cell_angle_gamma   90.00000000
_symmetry_Int_Tables_number   1
_chemical_formula_structural   HfTaTiNbMoC5
_chemical_formula_sum   'Hf2 Ta2 Ti2 Nb2 Mo2 C10'
_cell_volume   225.99371083
_cell_formula_units_Z   2
loop_
 _symmetry_equiv_pos_site_id
 _symmetry_equiv_pos_as_xyz
  1  'x, y, z'
loop_
 _atom_site_type_symbol
 _atom_site_label
 _atom_site_symmetry_multiplicity
 _atom_site_fract_x
 _atom_site_fract_y
 _atom_site_fract_z
 _atom_site_occupancy
  C  C0  1  0.70225249  0.00000000  0.90751073  1
  C  C1  1  0.49549479  0.00000000  0.49811216  1
  C  C2  1  0.59872756  0.50000000  0.19350606  1
  C  C3  1  0.89756834  0.00000000  0.29342827  1
  C  C4  1  0.00043510  0.50000000  0.00214343  1
  C  C5  1  0.30371469  0.00000000  0.10325352  1
  C  C6  1  0.39947743  0.50000000  0.80756276  1
  C  C7  1  0.80498655  0.50000000  0.59815190  1
  C  C8  1  0.10344741  0.00000000  0.69961620  1
  C  C9  1  0.19539773  0.50000000  0.39516362  1
  Hf  Hf10  1  0.49906228  0.50000000  0.49611491  1
  Hf  Hf11  1  0.79947507  0.00000000  0.60344817  1
  Nb  Nb12  1  0.39638240  0.00000000  0.80870452  1
  Nb  Nb13  1  0.10131259  0.50000000  0.71013137  1
  Ta  Ta14  1  0.20052178  0.00000000  0.39298947  1
  Ta  Ta15  1  0.89806127  0.50000000  0.29206892  1
  Ti  Ti16  1  0.30495066  0.50000000  0.09902343  1
  Ti  Ti17  1  0.59773405  0.00000000  0.19346654  1
  Mo  Mo18  1  0.68848518  0.50000000  0.90224974  1
  Mo  Mo19  1  0.01251262  0.00000000  0.00337429  1
