# generated using pymatgen
data_HfTaTiNbMoC5
_symmetry_space_group_name_H-M   'P 1'
_cell_length_a   7.08850000
_cell_length_b   4.49150000
_cell_length_c   7.08750000
_cell_angle_alpha   90.00000000
_cell_angle_beta   90.00000000
_cell_angle_gamma   90.00000000
_symmetry_Int_Tables_number   1
_chemical_formula_structural   HfTaTiNbMoC5
_chemical_formula_sum   'Hf2 Ta2 Ti2 Nb2 Mo2 C10'
_cell_volume   225.65180905
_cell_formula_units_Z   2
loop_
 _symmetry_equiv_pos_site_id
 _symmetry_equiv_pos_as_xyz
  1  'x, y, z'
loop_
 _atom_site_type_symbol
 _atom_site_label
 _atom_site_symmetry_multiplicity
 _atom_site_fract_x
 _atom_site_fract_y
 _atom_site_fract_z
 _atom_site_occupancy
  C  C0  1  0.70238371  0.00000000  0.90748165  1
  C  C1  1  0.49555121  0.00000000  0.49805923  1
  C  C2  1  0.59863493  0.50000000  0.19341111  1
  C  C3  1  0.89757147  0.00000000  0.29332996  1
  C  C4  1  0.00049829  0.50000000  0.00223083  1
  C  C5  1  0.30365040  0.00000000  0.10330204  1
  C  C6  1  0.39954459  0.50000000  0.80754282  1
  C  C7  1  0.80497845  0.50000000  0.59826098  1
  C  C8  1  0.10347940  0.00000000  0.69972023  1
  C  C9  1  0.19535763  0.50000000  0.39520136  1
  Hf  Hf10  1  0.49898291  0.50000000  0.49596994  1
  Hf  Hf11  1  0.79956617  0.00000000  0.60344235  1
  Nb  Nb12  1  0.39648487  0.00000000  0.80879099  1
  Nb  Nb13  1  0.10112414  0.50000000  0.71008749  1
  Ta  Ta14  1  0.20045456  0.00000000  0.39307340  1
  Ta  Ta15  1  0.89810732  0.50000000  0.29207789  1
  Ti  Ti16  1  0.30478858  0.50000000  0.09900837  1
  Ti  Ti17  1  0.59768215  0.00000000  0.19347537  1
  Mo  Mo18  1  0.68853986  0.50000000  0.90221227  1
  Mo  Mo19  1  0.01261938  0.00000000  0.00334172  1
