# generated using pymatgen
data_HfTaTiNbMoC5
_symmetry_space_group_name_H-M   'P 1'
_cell_length_a   7.06470000
_cell_length_b   4.46770000
_cell_length_c   7.06370000
_cell_angle_alpha   90.00000000
_cell_angle_beta   90.00000000
_cell_angle_gamma   90.00000000
_symmetry_Int_Tables_number   1
_chemical_formula_structural   HfTaTiNbMoC5
_chemical_formula_sum   'Hf2 Ta2 Ti2 Nb2 Mo2 C10'
_cell_volume   222.95128189
_cell_formula_units_Z   2
loop_
 _symmetry_equiv_pos_site_id
 _symmetry_equiv_pos_as_xyz
  1  'x, y, z'
loop_
 _atom_site_type_symbol
 _atom_site_label
 _atom_site_symmetry_multiplicity
 _atom_site_fract_x
 _atom_site_fract_y
 _atom_site_fract_z
 _atom_site_occupancy
  C  C0  1  0.70259405  0.00000000  0.90764707  1
  C  C1  1  0.49563074  0.00000000  0.49799297  1
  C  C2  1  0.59835710  0.50000000  0.19349234  1
  C  C3  1  0.89713234  0.00000000  0.29333262  1
  C  C4  1  0.00066532  0.50000000  0.00221812  1
  C  C5  1  0.30371150  0.00000000  0.10325283  1
  C  C6  1  0.39969373  0.50000000  0.80759015  1
  C  C7  1  0.80498330  0.50000000  0.59832115  1
  C  C8  1  0.10349214  0.00000000  0.69959858  1
  C  C9  1  0.19535271  0.50000000  0.39511850  1
  Hf  Hf10  1  0.49894231  0.50000000  0.49614819  1
  Hf  Hf11  1  0.79957592  0.00000000  0.60342508  1
  Nb  Nb12  1  0.39679038  0.00000000  0.80863242  1
  Nb  Nb13  1  0.10116011  0.50000000  0.70964520  1
  Ta  Ta14  1  0.20018065  0.00000000  0.39318130  1
  Ta  Ta15  1  0.89774302  0.50000000  0.29233194  1
  Ti  Ti16  1  0.30467679  0.50000000  0.09904450  1
  Ti  Ti17  1  0.59763439  0.00000000  0.19382821  1
  Mo  Mo18  1  0.68946016  0.50000000  0.90218746  1
  Mo  Mo19  1  0.01222336  0.00000000  0.00303140  1
