# generated using pymatgen
data_HfTaTiNbMoC5
_symmetry_space_group_name_H-M   'P 1'
_cell_length_a   7.08950000
_cell_length_b   4.49250000
_cell_length_c   7.08850000
_cell_angle_alpha   90.00000000
_cell_angle_beta   90.00000000
_cell_angle_gamma   90.00000000
_symmetry_Int_Tables_number   1
_chemical_formula_structural   HfTaTiNbMoC5
_chemical_formula_sum   'Hf2 Ta2 Ti2 Nb2 Mo2 C10'
_cell_volume   225.76573897
_cell_formula_units_Z   2
loop_
 _symmetry_equiv_pos_site_id
 _symmetry_equiv_pos_as_xyz
  1  'x, y, z'
loop_
 _atom_site_type_symbol
 _atom_site_label
 _atom_site_symmetry_multiplicity
 _atom_site_fract_x
 _atom_site_fract_y
 _atom_site_fract_z
 _atom_site_occupancy
  C  C0  1  0.70237360  0.00000000  0.90747491  1
  C  C1  1  0.49554802  0.00000000  0.49806301  1
  C  C2  1  0.59864646  0.50000000  0.19340803  1
  C  C3  1  0.89759072  0.00000000  0.29333046  1
  C  C4  1  0.00048936  0.50000000  0.00223202  1
  C  C5  1  0.30365100  0.00000000  0.10330350  1
  C  C6  1  0.39953560  0.50000000  0.80753839  1
  C  C7  1  0.80497590  0.50000000  0.59825947  1
  C  C8  1  0.10347476  0.00000000  0.69972378  1
  C  C9  1  0.19535616  0.50000000  0.39520214  1
  Hf  Hf10  1  0.49898197  0.50000000  0.49595798  1
  Hf  Hf11  1  0.79956840  0.00000000  0.60344767  1
  Nb  Nb12  1  0.39647351  0.00000000  0.80879324  1
  Nb  Nb13  1  0.10112651  0.50000000  0.71011698  1
  Ta  Ta14  1  0.20046396  0.00000000  0.39306545  1
  Ta  Ta15  1  0.89812601  0.50000000  0.29206599  1
  Ti  Ti16  1  0.30479912  0.50000000  0.09901060  1
  Ti  Ti17  1  0.59768311  0.00000000  0.19345946  1
  Mo  Mo18  1  0.68848310  0.50000000  0.90220753  1
  Mo  Mo19  1  0.01265271  0.00000000  0.00335942  1
