# generated using pymatgen
data_HfTaTiNbMoC5
_symmetry_space_group_name_H-M   'P 1'
_cell_length_a   7.09250000
_cell_length_b   4.49550000
_cell_length_c   7.09150000
_cell_angle_alpha   90.00000000
_cell_angle_beta   90.00000000
_cell_angle_gamma   90.00000000
_symmetry_Int_Tables_number   1
_chemical_formula_structural   HfTaTiNbMoC5
_chemical_formula_sum   'Hf2 Ta2 Ti2 Nb2 Mo2 C10'
_cell_volume   226.10775279
_cell_formula_units_Z   2
loop_
 _symmetry_equiv_pos_site_id
 _symmetry_equiv_pos_as_xyz
  1  'x, y, z'
loop_
 _atom_site_type_symbol
 _atom_site_label
 _atom_site_symmetry_multiplicity
 _atom_site_fract_x
 _atom_site_fract_y
 _atom_site_fract_z
 _atom_site_occupancy
  C  C0  1  0.70224307  0.00000000  0.90750358  1
  C  C1  1  0.49549022  0.00000000  0.49812000  1
  C  C2  1  0.59874158  0.50000000  0.19349386  1
  C  C3  1  0.89759419  0.00000000  0.29342756  1
  C  C4  1  0.00043145  0.50000000  0.00214118  1
  C  C5  1  0.30371676  0.00000000  0.10326502  1
  C  C6  1  0.39946350  0.50000000  0.80755916  1
  C  C7  1  0.80498142  0.50000000  0.59815293  1
  C  C8  1  0.10344583  0.00000000  0.69962441  1
  C  C9  1  0.19539790  0.50000000  0.39516802  1
  Hf  Hf10  1  0.49906759  0.50000000  0.49609875  1
  Hf  Hf11  1  0.79947259  0.00000000  0.60344688  1
  Nb  Nb12  1  0.39637122  0.00000000  0.80871164  1
  Nb  Nb13  1  0.10131038  0.50000000  0.71015878  1
  Ta  Ta14  1  0.20054118  0.00000000  0.39298941  1
  Ta  Ta15  1  0.89807784  0.50000000  0.29205717  1
  Ti  Ti16  1  0.30495323  0.50000000  0.09902147  1
  Ti  Ti17  1  0.59773680  0.00000000  0.19344738  1
  Mo  Mo18  1  0.68842361  0.50000000  0.90224243  1
  Mo  Mo19  1  0.01253962  0.00000000  0.00339037  1
