# generated using pymatgen
data_HfTaTiNbMoC5
_symmetry_space_group_name_H-M   'P 1'
_cell_length_a   7.08450000
_cell_length_b   4.48750000
_cell_length_c   7.08350000
_cell_angle_alpha   90.00000000
_cell_angle_beta   90.00000000
_cell_angle_gamma   90.00000000
_symmetry_Int_Tables_number   1
_chemical_formula_structural   HfTaTiNbMoC5
_chemical_formula_sum   'Hf2 Ta2 Ti2 Nb2 Mo2 C10'
_cell_volume   225.19646268
_cell_formula_units_Z   2
loop_
 _symmetry_equiv_pos_site_id
 _symmetry_equiv_pos_as_xyz
  1  'x, y, z'
loop_
 _atom_site_type_symbol
 _atom_site_label
 _atom_site_symmetry_multiplicity
 _atom_site_fract_x
 _atom_site_fract_y
 _atom_site_fract_z
 _atom_site_occupancy
  C  C0  1  0.70241838  0.00000000  0.90750786  1
  C  C1  1  0.49556329  0.00000000  0.49805237  1
  C  C2  1  0.59858952  0.50000000  0.19343300  1
  C  C3  1  0.89749703  0.00000000  0.29332695  1
  C  C4  1  0.00052194  0.50000000  0.00222222  1
  C  C5  1  0.30366399  0.00000000  0.10329295  1
  C  C6  1  0.39956838  0.50000000  0.80755062  1
  C  C7  1  0.80497787  0.50000000  0.59826828  1
  C  C8  1  0.10348011  0.00000000  0.69969415  1
  C  C9  1  0.19535635  0.50000000  0.39518659  1
  Hf  Hf10  1  0.49897653  0.50000000  0.49600581  1
  Hf  Hf11  1  0.79956592  0.00000000  0.60344489  1
  Nb  Nb12  1  0.39653753  0.00000000  0.80875753  1
  Nb  Nb13  1  0.10113294  0.50000000  0.71001546  1
  Ta  Ta14  1  0.20040814  0.00000000  0.39308853  1
  Ta  Ta15  1  0.89804280  0.50000000  0.29212101  1
  Ti  Ti16  1  0.30477696  0.50000000  0.09902208  1
  Ti  Ti17  1  0.59767104  0.00000000  0.19353720  1
  Mo  Mo18  1  0.68868419  0.50000000  0.90220542  1
  Mo  Mo19  1  0.01256713  0.00000000  0.00328708  1
