# generated using pymatgen
data_HfTaTiNbMoC5
_symmetry_space_group_name_H-M   'P 1'
_cell_length_a   7.09050000
_cell_length_b   4.49350000
_cell_length_c   7.08950000
_cell_angle_alpha   90.00000000
_cell_angle_beta   90.00000000
_cell_angle_gamma   90.00000000
_symmetry_Int_Tables_number   1
_chemical_formula_structural   HfTaTiNbMoC5
_chemical_formula_sum   'Hf2 Ta2 Ti2 Nb2 Mo2 C10'
_cell_volume   225.87970623
_cell_formula_units_Z   2
loop_
 _symmetry_equiv_pos_site_id
 _symmetry_equiv_pos_as_xyz
  1  'x, y, z'
loop_
 _atom_site_type_symbol
 _atom_site_label
 _atom_site_symmetry_multiplicity
 _atom_site_fract_x
 _atom_site_fract_y
 _atom_site_fract_z
 _atom_site_occupancy
  C  C0  1  0.70225840  0.00000000  0.90751500  1
  C  C1  1  0.49549930  0.00000000  0.49810459  1
  C  C2  1  0.59871638  0.50000000  0.19351194  1
  C  C3  1  0.89754424  0.00000000  0.29342996  1
  C  C4  1  0.00044961  0.50000000  0.00214865  1
  C  C5  1  0.30370724  0.00000000  0.10324530  1
  C  C6  1  0.39948776  0.50000000  0.80756802  1
  C  C7  1  0.80498851  0.50000000  0.59814680  1
  C  C8  1  0.10344942  0.00000000  0.69960796  1
  C  C9  1  0.19539403  0.50000000  0.39516574  1
  Hf  Hf10  1  0.49905829  0.50000000  0.49613027  1
  Hf  Hf11  1  0.79947753  0.00000000  0.60343436  1
  Nb  Nb12  1  0.39639542  0.00000000  0.80870365  1
  Nb  Nb13  1  0.10130255  0.50000000  0.71010939  1
  Ta  Ta14  1  0.20051466  0.00000000  0.39299310  1
  Ta  Ta15  1  0.89804331  0.50000000  0.29208211  1
  Ti  Ti16  1  0.30495676  0.50000000  0.09902437  1
  Ti  Ti17  1  0.59773735  0.00000000  0.19348893  1
  Mo  Mo18  1  0.68854804  0.50000000  0.90225545  1
  Mo  Mo19  1  0.01247123  0.00000000  0.00335442  1
