# generated using pymatgen
data_HfTaTiNbMoC5
_symmetry_space_group_name_H-M   'P 1'
_cell_length_a   7.08750000
_cell_length_b   4.49050000
_cell_length_c   7.08650000
_cell_angle_alpha   90.00000000
_cell_angle_beta   90.00000000
_cell_angle_gamma   90.00000000
_symmetry_Int_Tables_number   1
_chemical_formula_structural   HfTaTiNbMoC5
_chemical_formula_sum   'Hf2 Ta2 Ti2 Nb2 Mo2 C10'
_cell_volume   225.53791647
_cell_formula_units_Z   2
loop_
 _symmetry_equiv_pos_site_id
 _symmetry_equiv_pos_as_xyz
  1  'x, y, z'
loop_
 _atom_site_type_symbol
 _atom_site_label
 _atom_site_symmetry_multiplicity
 _atom_site_fract_x
 _atom_site_fract_y
 _atom_site_fract_z
 _atom_site_occupancy
  C  C0  1  0.70238960  0.00000000  0.90749138  1
  C  C1  1  0.49555267  0.00000000  0.49805826  1
  C  C2  1  0.59862589  0.50000000  0.19341822  1
  C  C3  1  0.89755613  0.00000000  0.29333176  1
  C  C4  1  0.00050524  0.50000000  0.00222728  1
  C  C5  1  0.30365934  0.00000000  0.10330046  1
  C  C6  1  0.39954713  0.50000000  0.80754255  1
  C  C7  1  0.80497522  0.50000000  0.59826266  1
  C  C8  1  0.10347461  0.00000000  0.69971079  1
  C  C9  1  0.19535903  0.50000000  0.39519608  1
  Hf  Hf10  1  0.49898149  0.50000000  0.49597927  1
  Hf  Hf11  1  0.79956168  0.00000000  0.60344611  1
  Nb  Nb12  1  0.39649691  0.00000000  0.80877617  1
  Nb  Nb13  1  0.10112564  0.50000000  0.71007451  1
  Ta  Ta14  1  0.20044239  0.00000000  0.39307322  1
  Ta  Ta15  1  0.89809232  0.50000000  0.29208970  1
  Ti  Ti16  1  0.30479186  0.50000000  0.09901132  1
  Ti  Ti17  1  0.59768034  0.00000000  0.19349090  1
  Mo  Mo18  1  0.68856885  0.50000000  0.90221042  1
  Mo  Mo19  1  0.01261367  0.00000000  0.00332897  1
