# generated using pymatgen
data_HfTaTiNbMoC5
_symmetry_space_group_name_H-M   'P 1'
_cell_length_a   7.08550000
_cell_length_b   4.48850000
_cell_length_c   7.08450000
_cell_angle_alpha   90.00000000
_cell_angle_beta   90.00000000
_cell_angle_gamma   90.00000000
_symmetry_Int_Tables_number   1
_chemical_formula_structural   HfTaTiNbMoC5
_chemical_formula_sum   'Hf2 Ta2 Ti2 Nb2 Mo2 C10'
_cell_volume   225.31024329
_cell_formula_units_Z   2
loop_
 _symmetry_equiv_pos_site_id
 _symmetry_equiv_pos_as_xyz
  1  'x, y, z'
loop_
 _atom_site_type_symbol
 _atom_site_label
 _atom_site_symmetry_multiplicity
 _atom_site_fract_x
 _atom_site_fract_y
 _atom_site_fract_z
 _atom_site_occupancy
  C  C0  1  0.70241373  0.00000000  0.90750136  1
  C  C1  1  0.49556130  0.00000000  0.49805537  1
  C  C2  1  0.59859756  0.50000000  0.19341999  1
  C  C3  1  0.89752157  0.00000000  0.29332319  1
  C  C4  1  0.00051826  0.50000000  0.00222646  1
  C  C5  1  0.30366562  0.00000000  0.10330288  1
  C  C6  1  0.39956034  0.50000000  0.80754581  1
  C  C7  1  0.80497547  0.50000000  0.59827072  1
  C  C8  1  0.10347925  0.00000000  0.69970442  1
  C  C9  1  0.19535512  0.50000000  0.39519335  1
  Hf  Hf10  1  0.49897676  0.50000000  0.49599150  1
  Hf  Hf11  1  0.79956634  0.00000000  0.60344143  1
  Nb  Nb12  1  0.39652982  0.00000000  0.80876852  1
  Nb  Nb13  1  0.10113049  0.50000000  0.71003179  1
  Ta  Ta14  1  0.20041804  0.00000000  0.39309427  1
  Ta  Ta15  1  0.89805944  0.50000000  0.29210573  1
  Ti  Ti16  1  0.30477433  0.50000000  0.09902028  1
  Ti  Ti17  1  0.59766386  0.00000000  0.19351509  1
  Mo  Mo18  1  0.68863875  0.50000000  0.90220312  1
  Mo  Mo19  1  0.01259395  0.00000000  0.00330469  1
