# generated using pymatgen
data_HfTaTiNbMoC5
_symmetry_space_group_name_H-M   'P 1'
_cell_length_a   7.08350000
_cell_length_b   4.48650000
_cell_length_c   7.08250000
_cell_angle_alpha   90.00000000
_cell_angle_beta   90.00000000
_cell_angle_gamma   90.00000000
_symmetry_Int_Tables_number   1
_chemical_formula_structural   HfTaTiNbMoC5
_chemical_formula_sum   'Hf2 Ta2 Ti2 Nb2 Mo2 C10'
_cell_volume   225.08271938
_cell_formula_units_Z   2
loop_
 _symmetry_equiv_pos_site_id
 _symmetry_equiv_pos_as_xyz
  1  'x, y, z'
loop_
 _atom_site_type_symbol
 _atom_site_label
 _atom_site_symmetry_multiplicity
 _atom_site_fract_x
 _atom_site_fract_y
 _atom_site_fract_z
 _atom_site_occupancy
  C  C0  1  0.70241800  0.00000000  0.90750624  1
  C  C1  1  0.49556315  0.00000000  0.49805221  1
  C  C2  1  0.59857778  0.50000000  0.19343339  1
  C  C3  1  0.89748632  0.00000000  0.29332472  1
  C  C4  1  0.00053836  0.50000000  0.00222303  1
  C  C5  1  0.30366908  0.00000000  0.10329661  1
  C  C6  1  0.39956916  0.50000000  0.80754896  1
  C  C7  1  0.80496752  0.50000000  0.59827612  1
  C  C8  1  0.10348584  0.00000000  0.69969635  1
  C  C9  1  0.19535373  0.50000000  0.39518186  1
  Hf  Hf10  1  0.49896688  0.50000000  0.49602061  1
  Hf  Hf11  1  0.79956728  0.00000000  0.60344640  1
  Nb  Nb12  1  0.39656572  0.00000000  0.80873153  1
  Nb  Nb13  1  0.10114120  0.50000000  0.71000657  1
  Ta  Ta14  1  0.20038989  0.00000000  0.39309184  1
  Ta  Ta15  1  0.89802918  0.50000000  0.29213122  1
  Ti  Ti16  1  0.30478557  0.50000000  0.09903044  1
  Ti  Ti17  1  0.59766222  0.00000000  0.19354031  1
  Mo  Mo18  1  0.68875628  0.50000000  0.90220587  1
  Mo  Mo19  1  0.01250682  0.00000000  0.00327572  1
