# generated using pymatgen
data_Ti15CrN16
_symmetry_space_group_name_H-M   'P 1'
_cell_length_a   5.99050959
_cell_length_b   5.99050959
_cell_length_c   8.48447699
_cell_angle_alpha   90.00000000
_cell_angle_beta   90.00000000
_cell_angle_gamma   90.00000000
_symmetry_Int_Tables_number   1
_chemical_formula_structural   Ti15CrN16
_chemical_formula_sum   'Ti15 Cr1 N16'
_cell_volume   304.47568184
_cell_formula_units_Z   1
loop_
 _symmetry_equiv_pos_site_id
 _symmetry_equiv_pos_as_xyz
  1  'x, y, z'
loop_
 _atom_site_type_symbol
 _atom_site_label
 _atom_site_symmetry_multiplicity
 _atom_site_fract_x
 _atom_site_fract_y
 _atom_site_fract_z
 _atom_site_occupancy
  Cr  Cr0  1  0.25000000  0.75000000  0.75000000  1
  N  N1  1  0.74999544  0.75000045  0.50017330  1
  N  N2  1  0.74999397  0.24999405  0.50102324  1
  N  N3  1  0.25000973  0.75000967  0.50182742  1
  N  N4  1  0.25000051  0.24999550  0.50017312  1
  N  N5  1  0.49996822  0.50003169  0.25000004  1
  N  N6  1  0.49987997  0.99988006  0.25000490  1
  N  N7  1  0.75000456  0.74999955  -0.00017330  1
  N  N8  1  0.75000603  0.25000595  0.99897676  1
  N  N9  1  0.00012003  0.50011994  0.24999510  1
  N  N10  1  0.00003178  0.99996831  0.24999996  1
  N  N11  1  0.24999027  0.74999033  0.99817258  1
  N  N12  1  0.24999949  0.25000450  -0.00017312  1
  N  N13  1  0.49994381  0.50005600  0.74999997  1
  N  N14  1  0.49999486  0.99999505  0.74999273  1
  N  N15  1  0.00000514  0.50000495  0.75000727  1
  N  N16  1  0.00005619  0.99994400  0.75000003  1
  Ti  Ti17  1  0.75000000  0.25000000  0.75000000  1
  Ti  Ti18  1  0.75000000  0.75000000  0.75000000  1
  Ti  Ti19  1  0.25000000  0.25000000  0.75000000  1
  Ti  Ti20  1  0.49854600  0.99854599  0.50177072  1
  Ti  Ti21  1  0.49846701  0.50152569  0.50168566  1
  Ti  Ti22  1  0.75000000  0.25000000  0.25000000  1
  Ti  Ti23  1  0.75000000  0.75000000  0.25000000  1
  Ti  Ti24  1  0.00152609  0.99846654  0.50168594  1
  Ti  Ti25  1  0.00146805  0.50146801  0.50176936  1
  Ti  Ti26  1  0.25000000  0.25000000  0.25000000  1
  Ti  Ti27  1  0.25000000  0.75000000  0.25000000  1
  Ti  Ti28  1  0.49853195  0.99853199  0.99823064  1
  Ti  Ti29  1  0.49847391  0.50153346  0.99831406  1
  Ti  Ti30  1  0.00153299  0.99847431  0.99831434  1
  Ti  Ti31  1  0.00145400  0.50145401  0.99822928  1
