# generated using pymatgen
data_Al15FeN16
_symmetry_space_group_name_H-M   'P 1'
_cell_length_a   6.27071064
_cell_length_b   6.27071064
_cell_length_c   10.06050614
_cell_angle_alpha   90.00000000
_cell_angle_beta   90.00000000
_cell_angle_gamma   120.00000002
_symmetry_Int_Tables_number   1
_chemical_formula_structural   Al15FeN16
_chemical_formula_sum   'Al15 Fe1 N16'
_cell_volume   342.59733751
_cell_formula_units_Z   1
loop_
 _symmetry_equiv_pos_site_id
 _symmetry_equiv_pos_as_xyz
  1  'x, y, z'
loop_
 _atom_site_type_symbol
 _atom_site_label
 _atom_site_symmetry_multiplicity
 _atom_site_fract_x
 _atom_site_fract_y
 _atom_site_fract_z
 _atom_site_occupancy
  Fe  Fe0  1  0.16666667  0.33333333  0.25096027  1
  Al  Al1  1  0.33346763  0.16653237  0.99888193  1
  Al  Al2  1  0.16666667  0.33333333  0.74924373  1
  Al  Al3  1  0.33420292  0.16579708  0.50123723  1
  Al  Al4  1  0.16578720  0.83289359  0.25050772  1
  Al  Al5  1  0.33346763  0.66693528  0.99888193  1
  Al  Al6  1  0.16630844  0.83315422  0.75025495  1
  Al  Al7  1  0.33420292  0.66840585  0.50123723  1
  Al  Al8  1  0.66710641  0.33421280  0.25050772  1
  Al  Al9  1  0.83306472  0.16653237  0.99888193  1
  Al  Al10  1  0.66684578  0.33369156  0.75025495  1
  Al  Al11  1  0.83159415  0.16579708  0.50123723  1
  Al  Al12  1  0.66710641  0.83289359  0.25050772  1
  Al  Al13  1  0.83333333  0.66666667  0.99995741  1
  Al  Al14  1  0.66684578  0.83315422  0.75025495  1
  Al  Al15  1  0.83333333  0.66666667  0.50027009  1
  N  N16  1  0.16666667  0.33333333  0.44778255  1
  N  N17  1  0.33782513  0.16217487  0.18862408  1
  N  N18  1  0.16666667  0.33333333  0.93994506  1
  N  N19  1  0.33376659  0.16623341  0.69144247  1
  N  N20  1  0.16676887  0.83338443  0.44101338  1
  N  N21  1  0.33782513  0.67565027  0.18862408  1
  N  N22  1  0.16591111  0.83295555  0.94022199  1
  N  N23  1  0.33376659  0.66753319  0.69144247  1
  N  N24  1  0.66661557  0.33323113  0.44101338  1
  N  N25  1  0.82434973  0.16217487  0.18862408  1
  N  N26  1  0.66704445  0.33408889  0.94022199  1
  N  N27  1  0.83246681  0.16623341  0.69144247  1
  N  N28  1  0.66661557  0.83338443  0.44101338  1
  N  N29  1  0.83333333  0.66666667  0.19079809  1
  N  N30  1  0.66704445  0.83295555  0.94022199  1
  N  N31  1  0.83333333  0.66666667  0.69049157  1
