# generated using pymatgen
data_Ti15NiN16
_symmetry_space_group_name_H-M   'P 1'
_cell_length_a   6.00696436
_cell_length_b   6.00696436
_cell_length_c   8.49613262
_cell_angle_alpha   90.00000000
_cell_angle_beta   90.00000000
_cell_angle_gamma   90.00000000
_symmetry_Int_Tables_number   1
_chemical_formula_structural   Ti15NiN16
_chemical_formula_sum   'Ti15 Ni1 N16'
_cell_volume   306.57122792
_cell_formula_units_Z   1
loop_
 _symmetry_equiv_pos_site_id
 _symmetry_equiv_pos_as_xyz
  1  'x, y, z'
loop_
 _atom_site_type_symbol
 _atom_site_label
 _atom_site_symmetry_multiplicity
 _atom_site_fract_x
 _atom_site_fract_y
 _atom_site_fract_z
 _atom_site_occupancy
  Ni  Ni0  1  0.25000000  0.75000000  0.75000000  1
  N  N1  1  0.75000000  0.75000000  0.49927828  1
  N  N2  1  0.75000000  0.25000000  0.50234909  1
  N  N3  1  0.25000000  0.75000000  0.49688271  1
  N  N4  1  0.25000000  0.25000000  0.49927822  1
  N  N5  1  0.49952304  0.50047721  0.25000000  1
  N  N6  1  0.49952304  0.99952279  0.25000000  1
  N  N7  1  0.75000000  0.75000000  0.00072172  1
  N  N8  1  0.75000000  0.25000000  0.99765091  1
  N  N9  1  0.00047696  0.50047721  0.25000000  1
  N  N10  1  0.00047696  0.99952279  0.25000000  1
  N  N11  1  0.25000000  0.75000000  0.00311729  1
  N  N12  1  0.25000000  0.25000000  0.00072178  1
  N  N13  1  0.50501984  0.49498057  0.75000000  1
  N  N14  1  0.50501984  0.00501943  0.75000000  1
  N  N15  1  0.99498016  0.49498057  0.75000000  1
  N  N16  1  0.99498016  0.00501943  0.75000000  1
  Ti  Ti17  1  0.75000000  0.25000000  0.75000000  1
  Ti  Ti18  1  0.75000000  0.75000000  0.75000000  1
  Ti  Ti19  1  0.25000000  0.25000000  0.75000000  1
  Ti  Ti20  1  0.49887778  0.99887789  0.50305590  1
  Ti  Ti21  1  0.49887778  0.50112211  0.50305590  1
  Ti  Ti22  1  0.75000000  0.25000000  0.25000000  1
  Ti  Ti23  1  0.75000000  0.75000000  0.25000000  1
  Ti  Ti24  1  0.00112222  0.99887789  0.50305590  1
  Ti  Ti25  1  0.00112222  0.50112211  0.50305590  1
  Ti  Ti26  1  0.25000000  0.25000000  0.25000000  1
  Ti  Ti27  1  0.25000000  0.75000000  0.25000000  1
  Ti  Ti28  1  0.49887778  0.99887789  0.99694410  1
  Ti  Ti29  1  0.49887778  0.50112211  0.99694410  1
  Ti  Ti30  1  0.00112222  0.99887789  0.99694410  1
  Ti  Ti31  1  0.00112222  0.50112211  0.99694410  1
