# generated using pymatgen
data_Ti15OsN16
_symmetry_space_group_name_H-M   'P 1'
_cell_length_a   6.01755455
_cell_length_b   6.01755455
_cell_length_c   8.50794585
_cell_angle_alpha   90.00000000
_cell_angle_beta   90.00000000
_cell_angle_gamma   90.00000000
_symmetry_Int_Tables_number   1
_chemical_formula_structural   Ti15OsN16
_chemical_formula_sum   'Ti15 Os1 N16'
_cell_volume   308.08091036
_cell_formula_units_Z   1
loop_
 _symmetry_equiv_pos_site_id
 _symmetry_equiv_pos_as_xyz
  1  'x, y, z'
loop_
 _atom_site_type_symbol
 _atom_site_label
 _atom_site_symmetry_multiplicity
 _atom_site_fract_x
 _atom_site_fract_y
 _atom_site_fract_z
 _atom_site_occupancy
  Os  Os0  1  0.25000000  0.75000000  0.75000000  1
  N  N1  1  0.75000000  0.75000000  0.49968439  1
  N  N2  1  0.75000000  0.25000000  0.50176687  1
  N  N3  1  0.25000000  0.75000000  0.49740210  1
  N  N4  1  0.25000000  0.25000000  0.49968439  1
  N  N5  1  0.49954565  0.50045435  0.25000000  1
  N  N6  1  0.49954565  0.99954565  0.25000000  1
  N  N7  1  0.75000000  0.75000000  0.00031561  1
  N  N8  1  0.75000000  0.25000000  -0.00176687  1
  N  N9  1  0.00045435  0.50045435  0.25000000  1
  N  N10  1  0.00045435  0.99954565  0.25000000  1
  N  N11  1  0.25000000  0.75000000  0.00259790  1
  N  N12  1  0.25000000  0.25000000  0.00031561  1
  N  N13  1  0.50336736  0.49663264  0.75000000  1
  N  N14  1  0.50336736  0.00336736  0.75000000  1
  N  N15  1  0.99663264  0.49663264  0.75000000  1
  N  N16  1  0.99663264  0.00336736  0.75000000  1
  Ti  Ti17  1  0.75000000  0.25000000  0.75000000  1
  Ti  Ti18  1  0.75000000  0.75000000  0.75000000  1
  Ti  Ti19  1  0.25000000  0.25000000  0.75000000  1
  Ti  Ti20  1  0.50286168  0.00286168  0.49907280  1
  Ti  Ti21  1  0.50286168  0.49713832  0.49907280  1
  Ti  Ti22  1  0.75000000  0.25000000  0.25000000  1
  Ti  Ti23  1  0.75000000  0.75000000  0.25000000  1
  Ti  Ti24  1  0.99713832  0.00286168  0.49907280  1
  Ti  Ti25  1  0.99713832  0.49713832  0.49907280  1
  Ti  Ti26  1  0.25000000  0.25000000  0.25000000  1
  Ti  Ti27  1  0.25000000  0.75000000  0.25000000  1
  Ti  Ti28  1  0.50286168  0.00286168  0.00092720  1
  Ti  Ti29  1  0.50286168  0.49713832  0.00092720  1
  Ti  Ti30  1  0.99713832  0.00286168  0.00092720  1
  Ti  Ti31  1  0.99713832  0.49713832  0.00092720  1
