# generated using pymatgen
data_Al15OsN16
_symmetry_space_group_name_H-M   'P 1'
_cell_length_a   6.31573990
_cell_length_b   6.31573989
_cell_length_c   9.98453995
_cell_angle_alpha   90.00000000
_cell_angle_beta   90.00000000
_cell_angle_gamma   120.00000003
_symmetry_Int_Tables_number   1
_chemical_formula_structural   Al15OsN16
_chemical_formula_sum   'Al15 Os1 N16'
_cell_volume   344.91109322
_cell_formula_units_Z   1
loop_
 _symmetry_equiv_pos_site_id
 _symmetry_equiv_pos_as_xyz
  1  'x, y, z'
loop_
 _atom_site_type_symbol
 _atom_site_label
 _atom_site_symmetry_multiplicity
 _atom_site_fract_x
 _atom_site_fract_y
 _atom_site_fract_z
 _atom_site_occupancy
  Os  Os0  1  0.16666667  0.33333333  0.22132810  1
  Al  Al1  1  0.33783640  0.16216360  0.99909662  1
  Al  Al2  1  0.16666667  0.33333333  0.75366737  1
  Al  Al3  1  0.33190677  0.16809323  0.49925493  1
  Al  Al4  1  0.16381577  0.83190788  0.25550572  1
  Al  Al5  1  0.33783640  0.67567281  0.99909662  1
  Al  Al6  1  0.16552163  0.83276081  0.74842595  1
  Al  Al7  1  0.33190677  0.66381356  0.49925493  1
  Al  Al8  1  0.66809212  0.33618423  0.25550572  1
  Al  Al9  1  0.82432719  0.16216360  0.99909662  1
  Al  Al10  1  0.66723919  0.33447837  0.74842595  1
  Al  Al11  1  0.83618644  0.16809323  0.49925493  1
  Al  Al12  1  0.66809212  0.83190788  0.25550572  1
  Al  Al13  1  0.83333333  0.66666667  0.99976937  1
  Al  Al14  1  0.66723919  0.83276081  0.74842595  1
  Al  Al15  1  0.83333333  0.66666667  0.50219471  1
  N  N16  1  0.16666667  0.33333333  0.43860585  1
  N  N17  1  0.34918892  0.15081108  0.18849096  1
  N  N18  1  0.16666667  0.33333333  0.95219327  1
  N  N19  1  0.33201612  0.16798388  0.69276521  1
  N  N20  1  0.16605807  0.83302903  0.44527560  1
  N  N21  1  0.34918892  0.69837786  0.18849096  1
  N  N22  1  0.16449483  0.83224741  0.93907323  1
  N  N23  1  0.33201612  0.66403225  0.69276521  1
  N  N24  1  0.66697097  0.33394193  0.44527560  1
  N  N25  1  0.80162214  0.15081108  0.18849096  1
  N  N26  1  0.66775259  0.33550517  0.93907323  1
  N  N27  1  0.83596775  0.16798388  0.69276521  1
  N  N28  1  0.66697097  0.83302903  0.44527560  1
  N  N29  1  0.83333333  0.66666667  0.19276948  1
  N  N30  1  0.66775259  0.83224741  0.93907323  1
  N  N31  1  0.83333333  0.66666667  0.69180719  1
