# generated using pymatgen
data_HfTaTiNbMoC5
_symmetry_space_group_name_H-M   'P 1'
_cell_length_a   7.06850000
_cell_length_b   4.47150000
_cell_length_c   7.06750000
_cell_angle_alpha   90.00000000
_cell_angle_beta   90.00000000
_cell_angle_gamma   90.00000000
_symmetry_Int_Tables_number   1
_chemical_formula_structural   HfTaTiNbMoC5
_chemical_formula_sum   'Hf2 Ta2 Ti2 Nb2 Mo2 C10'
_cell_volume   223.38104310
_cell_formula_units_Z   2
loop_
 _symmetry_equiv_pos_site_id
 _symmetry_equiv_pos_as_xyz
  1  'x, y, z'
loop_
 _atom_site_type_symbol
 _atom_site_label
 _atom_site_symmetry_multiplicity
 _atom_site_fract_x
 _atom_site_fract_y
 _atom_site_fract_z
 _atom_site_occupancy
  C  C0  1  0.70256375  0.00000000  0.90761360  1
  C  C1  1  0.49562233  0.00000000  0.49800457  1
  C  C2  1  0.59839856  0.50000000  0.19347859  1
  C  C3  1  0.89720538  0.00000000  0.29332706  1
  C  C4  1  0.00062880  0.50000000  0.00221593  1
  C  C5  1  0.30369702  0.00000000  0.10326322  1
  C  C6  1  0.39966969  0.50000000  0.80758575  1
  C  C7  1  0.80498424  0.50000000  0.59831027  1
  C  C8  1  0.10349345  0.00000000  0.69961893  1
  C  C9  1  0.19535344  0.50000000  0.39513675  1
  Hf  Hf10  1  0.49895015  0.50000000  0.49612087  1
  Hf  Hf11  1  0.79958213  0.00000000  0.60342472  1
  Nb  Nb12  1  0.39674350  0.00000000  0.80866589  1
  Nb  Nb13  1  0.10116022  0.50000000  0.70971355  1
  Ta  Ta14  1  0.20022806  0.00000000  0.39316992  1
  Ta  Ta15  1  0.89780138  0.50000000  0.29229094  1
  Ti  Ti16  1  0.30468423  0.50000000  0.09904387  1
  Ti  Ti17  1  0.59764010  0.00000000  0.19376607  1
  Mo  Mo18  1  0.68930980  0.50000000  0.90218789  1
  Mo  Mo19  1  0.01228378  0.00000000  0.00308163  1
