# generated using pymatgen
data_HfTaTiNbMoC5
_symmetry_space_group_name_H-M   'P 1'
_cell_length_a   7.05666903
_cell_length_b   7.05763618
_cell_length_c   4.46026454
_cell_angle_alpha   90.00000000
_cell_angle_beta   90.00000000
_cell_angle_gamma   90.07629891
_symmetry_Int_Tables_number   1
_chemical_formula_structural   HfTaTiNbMoC5
_chemical_formula_sum   'Hf2 Ta2 Ti2 Nb2 Mo2 C10'
_cell_volume   222.13615381
_cell_formula_units_Z   2
loop_
 _symmetry_equiv_pos_site_id
 _symmetry_equiv_pos_as_xyz
  1  'x, y, z'
loop_
 _atom_site_type_symbol
 _atom_site_label
 _atom_site_symmetry_multiplicity
 _atom_site_fract_x
 _atom_site_fract_y
 _atom_site_fract_z
 _atom_site_occupancy
  C  C0  1  0.29901100  0.90279233  0.00000000  1
  C  C1  1  0.50663251  0.49868851  0.00000000  1
  C  C2  1  0.39723102  0.19637273  0.50000000  1
  C  C3  1  0.09543914  0.29548376  0.00000000  1
  C  C4  1  0.00306054  0.00226494  0.50000000  1
  C  C5  1  0.70376351  0.10117024  0.00000000  1
  C  C6  1  0.60011292  0.80601000  0.50000000  1
  C  C7  1  0.19537619  0.59922967  0.50000000  1
  C  C8  1  0.89370539  0.69833074  0.00000000  1
  C  C9  1  0.80509714  0.39889975  0.50000000  1
  Hf  Hf10  1  0.50129105  0.50064791  0.50000000  1
  Hf  Hf11  1  0.19422294  0.59870878  0.00000000  1
  Mo  Mo12  1  0.60401621  0.79220726  0.00000000  1
  Mo  Mo13  1  0.89481842  0.69100333  0.50000000  1
  Nb  Nb14  1  0.70805281  0.10575817  0.50000000  1
  Nb  Nb15  1  0.40681058  0.20004241  0.00000000  1
  Ta  Ta16  1  0.29552665  0.90233820  0.50000000  1
  Ta  Ta17  1  0.99503670  0.00475495  0.00000000  1
  Ti  Ti18  1  0.80230413  0.40230678  0.00000000  1
  Ti  Ti19  1  0.09849115  0.30298956  0.50000000  1
