# generated using pymatgen
data_Ti31CrN32
_symmetry_space_group_name_H-M   'P 1'
_cell_length_a   18.45919840
_cell_length_b   9.32319054
_cell_length_c   4.21675053
_cell_angle_alpha   90.00002537
_cell_angle_beta   90.00001495
_cell_angle_gamma   98.40427914
_symmetry_Int_Tables_number   1
_chemical_formula_structural   Ti31CrN32
_chemical_formula_sum   'Ti31 Cr1 N32'
_cell_volume   717.90400844
_cell_formula_units_Z   1
loop_
 _symmetry_equiv_pos_site_id
 _symmetry_equiv_pos_as_xyz
  1  'x, y, z'
loop_
 _atom_site_type_symbol
 _atom_site_label
 _atom_site_symmetry_multiplicity
 _atom_site_fract_x
 _atom_site_fract_y
 _atom_site_fract_z
 _atom_site_occupancy
  Ti  Ti0  1  0.16766959  0.33386853  0.06255455  1
  Ti  Ti1  1  0.29286010  0.08452965  0.06250711  1
  Ti  Ti2  1  0.48035867  0.21009794  0.06250955  1
  Ti  Ti3  1  0.10396717  0.95906209  0.06253283  1
  Ti  Ti4  1  0.41736862  0.83116950  0.06247408  1
  Ti  Ti5  1  0.46051182  0.41864747  0.56255456  1
  Ti  Ti6  1  0.39745039  0.04088990  0.56250479  1
  Ti  Ti7  1  0.02066773  0.79129170  0.56254671  1
  Ti  Ti8  1  0.22805145  0.70954603  0.06252459  1
  Ti  Ti9  1  0.35613484  0.46118431  0.06252093  1
  Ti  Ti10  1  0.04116728  0.58372484  0.06254299  1
  Ti  Ti11  1  0.33268758  0.66703352  0.56249445  1
  Ti  Ti12  1  0.14561742  0.54081878  0.56254485  1
  Ti  Ti13  1  0.27282554  0.29238071  0.56253007  1
  Ti  Ti14  1  0.08407381  0.16690945  0.56254952  1
  Ti  Ti15  1  0.20875083  0.91775593  0.56251797  1
  Ti  Ti16  1  0.66412815  0.33422903  0.06248435  1
  Ti  Ti17  1  0.79207117  0.08679031  0.06245583  1
  Ti  Ti18  1  0.97935163  0.20972821  0.06250615  1
  Ti  Ti19  1  0.60400908  0.95223791  0.06247945  1
  Ti  Ti20  1  0.91606330  0.83393851  0.06249583  1
  Ti  Ti21  1  0.95755256  0.41645313  0.56253654  1
  Ti  Ti22  1  0.89620225  0.04234687  0.56250575  1
  Ti  Ti23  1  0.52113812  0.78446669  0.56247838  1
  Ti  Ti24  1  0.72697575  0.70813930  0.06248811  1
  Ti  Ti25  1  0.85300827  0.45961124  0.06249402  1
  Ti  Ti26  1  0.83206976  0.66677917  0.56249836  1
  Ti  Ti27  1  0.64317639  0.54157684  0.56248980  1
  Ti  Ti28  1  0.76945461  0.29339520  0.56249044  1
  Ti  Ti29  1  0.58350567  0.16127477  0.56249772  1
  Ti  Ti30  1  0.70952396  0.91749057  0.56246424  1
  N  N31  1  0.22798522  0.70946281  0.56250849  1
  N  N32  1  0.35556255  0.46189482  0.56251520  1
  N  N33  1  0.04099247  0.58325780  0.56253434  1
  N  N34  1  0.16789625  0.33412252  0.56255497  1
  N  N35  1  0.29325189  0.08461564  0.56248861  1
  N  N36  1  0.48084191  0.20879598  0.56250943  1
  N  N37  1  0.10396071  0.95908043  0.56253028  1
  N  N38  1  0.41666397  0.83109138  0.56247892  1
  N  N39  1  0.33220245  0.66733365  0.06248646  1
  N  N40  1  0.45936706  0.41633247  0.06254918  1
  N  N41  1  0.14576496  0.54004894  0.06252701  1
  N  N42  1  0.27287475  0.29283395  0.06252475  1
  N  N43  1  0.39759414  0.04049833  0.06249661  1
  N  N44  1  0.08420711  0.16749119  0.06253361  1
  N  N45  1  0.20895269  0.91845468  0.06250500  1
  N  N46  1  0.02052696  0.79119268  0.06253614  1
  N  N47  1  0.72717913  0.70927869  0.56246935  1
  N  N48  1  0.85281646  0.45987814  0.56248018  1
  N  N49  1  0.54106339  0.58219542  0.56243448  1
  N  N50  1  0.66367349  0.33268068  0.56247771  1
  N  N51  1  0.79211257  0.08712738  0.56244059  1
  N  N52  1  0.97968722  0.20980911  0.56249120  1
  N  N53  1  0.60468911  0.95261858  0.56247350  1
  N  N54  1  0.91607332  0.83374826  0.56248409  1
  N  N55  1  0.83210258  0.66755966  0.06248245  1
  N  N56  1  0.95785000  0.41685787  0.06251947  1
  N  N57  1  0.64463844  0.54133459  0.06246027  1
  N  N58  1  0.76881816  0.29318865  0.06247036  1
  N  N59  1  0.89611236  0.04177507  0.06247812  1
  N  N60  1  0.58376501  0.16004978  0.06247394  1
  N  N61  1  0.71002198  0.91879344  0.06244027  1
  N  N62  1  0.52071993  0.78721007  0.06245970  1
  Cr  Cr63  1  0.54163828  0.58201932  0.06241083  1
