# generated using pymatgen
data_TiNiC2
_symmetry_space_group_name_H-M   'P 1'
_cell_length_a   3.03010936
_cell_length_b   5.83751737
_cell_length_c   8.40633081
_cell_angle_alpha   88.82154233
_cell_angle_beta   90.00000000
_cell_angle_gamma   90.00000000
_symmetry_Int_Tables_number   1
_chemical_formula_structural   TiNiC2
_chemical_formula_sum   'Ti4 Ni4 C8'
_cell_volume   148.66238524
_cell_formula_units_Z   4
loop_
 _symmetry_equiv_pos_site_id
 _symmetry_equiv_pos_as_xyz
  1  'x, y, z'
loop_
 _atom_site_type_symbol
 _atom_site_label
 _atom_site_symmetry_multiplicity
 _atom_site_fract_x
 _atom_site_fract_y
 _atom_site_fract_z
 _atom_site_occupancy
  C  C0  1  0.50000000  0.24068577  0.01630321  1
  C  C1  1  0.00000000  0.96447435  0.75596738  1
  C  C2  1  0.50000000  0.24845619  0.49982211  1
  C  C3  1  0.00000000  0.02340984  0.22375287  1
  C  C4  1  0.50000000  0.78051062  0.00222424  1
  C  C5  1  0.00000000  0.49218817  0.75728693  1
  C  C6  1  0.50000000  0.75262433  0.49431559  1
  C  C7  1  0.00000000  0.51470615  0.25274385  1
  Ni  Ni8  1  0.50000000  0.26651910  0.25656349  1
  Ni  Ni9  1  0.00000000  0.00717356  0.99699083  1
  Ni  Ni10  1  0.50000000  0.73229977  0.75070954  1
  Ni  Ni11  1  0.50000000  0.73821679  0.25000571  1
  Ti  Ti12  1  0.50000000  0.22021450  0.75729796  1
  Ti  Ti13  1  0.00000000  0.00109449  0.47552771  1
  Ti  Ti14  1  0.00000000  0.50339078  0.50520124  1
  Ti  Ti15  1  0.00000000  0.51403557  0.00528735  1
