# generated using pymatgen
data_Ti3NiC4
_symmetry_space_group_name_H-M   'P 1'
_cell_length_a   6.79840804
_cell_length_b   6.78157481
_cell_length_c   7.93728955
_cell_angle_alpha   75.76674468
_cell_angle_beta   64.88425485
_cell_angle_gamma   72.31114272
_symmetry_Int_Tables_number   1
_chemical_formula_structural   Ti3NiC4
_chemical_formula_sum   'Ti12 Ni4 C16'
_cell_volume   312.76357073
_cell_formula_units_Z   4
loop_
 _symmetry_equiv_pos_site_id
 _symmetry_equiv_pos_as_xyz
  1  'x, y, z'
loop_
 _atom_site_type_symbol
 _atom_site_label
 _atom_site_symmetry_multiplicity
 _atom_site_fract_x
 _atom_site_fract_y
 _atom_site_fract_z
 _atom_site_occupancy
  C  C0  1  0.85080631  0.40367551  0.45571939  1
  C  C1  1  0.15672870  0.59125113  0.52940618  1
  C  C2  1  0.27446983  0.45807683  0.15137391  1
  C  C3  1  0.47148797  0.78190593  0.58952244  1
  C  C4  1  0.77952496  0.96781553  0.65881120  1
  C  C5  1  0.09261553  0.15878794  0.72247046  1
  C  C6  1  0.59927121  0.64880375  0.21391437  1
  C  C7  1  0.90424045  0.84918738  0.28447959  1
  C  C8  1  0.21398484  0.03125434  0.33601136  1
  C  C9  1  0.40635457  0.34444393  0.78319251  1
  C  C10  1  0.71850262  0.53072673  0.84731020  1
  C  C11  1  0.02942830  0.72088901  0.90907890  1
  C  C12  1  0.33933814  0.90650672  0.97086576  1
  C  C13  1  0.54108700  0.21775373  0.39524721  1
  C  C14  1  0.65596067  0.10089810  0.03334407  1
  C  C15  1  0.96024722  0.29209138  0.12517849  1
  Ni  Ni16  1  0.31963079  0.18054775  0.06222444  1
  Ni  Ni17  1  0.62664652  0.37481968  0.12204431  1
  Ni  Ni18  1  0.93396108  0.56927367  0.18283952  1
  Ni  Ni19  1  0.87268308  0.12727488  0.38288951  1
  Ti  Ti20  1  0.05976553  0.43812139  0.82342087  1
  Ti  Ti21  1  0.37399517  0.62221847  0.87695673  1
  Ti  Ti22  1  0.50947138  0.49391260  0.48908034  1
  Ti  Ti23  1  0.68668797  0.81759415  0.93715075  1
  Ti  Ti24  1  0.99715879  0.01023713  0.01174906  1
  Ti  Ti25  1  0.81298450  0.68626303  0.56080403  1
  Ti  Ti26  1  0.12427154  0.87479400  0.62419614  1
  Ti  Ti27  1  0.43856373  0.06489752  0.68560912  1
  Ti  Ti28  1  0.24828780  0.74010922  0.24821663  1
  Ti  Ti29  1  0.56449848  0.93566900  0.30900079  1
  Ti  Ti30  1  0.74961130  0.25095232  0.75250567  1
  Ti  Ti31  1  0.18773397  0.30924726  0.42538604  1
