# generated using pymatgen
data_NbAl15N16
_symmetry_space_group_name_H-M   'P 1'
_cell_length_a   5.81072702
_cell_length_b   5.81072702
_cell_length_c   8.22401264
_cell_angle_alpha   90.00000000
_cell_angle_beta   90.00000000
_cell_angle_gamma   90.00000000
_symmetry_Int_Tables_number   1
_chemical_formula_structural   NbAl15N16
_chemical_formula_sum   'Nb1 Al15 N16'
_cell_volume   277.68007366
_cell_formula_units_Z   1
loop_
 _symmetry_equiv_pos_site_id
 _symmetry_equiv_pos_as_xyz
  1  'x, y, z'
loop_
 _atom_site_type_symbol
 _atom_site_label
 _atom_site_symmetry_multiplicity
 _atom_site_fract_x
 _atom_site_fract_y
 _atom_site_fract_z
 _atom_site_occupancy
  Nb  Nb0  1  0.25000000  0.75000000  0.75000000  1
  N  N1  1  0.74999935  0.74999993  0.50007115  1
  N  N2  1  0.74999992  0.25000001  0.49574366  1
  N  N3  1  0.25000017  0.75000084  0.48609667  1
  N  N4  1  0.24999996  0.24999950  0.50007459  1
  N  N5  1  0.50147342  0.49853591  0.24999988  1
  N  N6  1  0.50147497  0.00146548  0.25000069  1
  N  N7  1  0.75000065  0.75000007  -0.00007115  1
  N  N8  1  0.75000008  0.24999999  0.00425634  1
  N  N9  1  0.99852503  0.49853452  0.24999931  1
  N  N10  1  0.99852658  0.00146409  0.25000012  1
  N  N11  1  0.24999983  0.74999916  0.01390333  1
  N  N12  1  0.25000004  0.25000050  -0.00007459  1
  N  N13  1  0.51136689  0.48869838  0.74999989  1
  N  N14  1  0.51135583  0.01129068  0.75000187  1
  N  N15  1  0.98864417  0.48870932  0.74999813  1
  N  N16  1  0.98863311  0.01130162  0.75000011  1
  Al  Al17  1  0.75000000  0.25000000  0.75000000  1
  Al  Al18  1  0.75000000  0.75000000  0.75000000  1
  Al  Al19  1  0.25000000  0.25000000  0.75000000  1
  Al  Al20  1  0.50213470  0.00218495  0.49657924  1
  Al  Al21  1  0.50213451  0.49781324  0.49658516  1
  Al  Al22  1  0.75000000  0.25000000  0.25000000  1
  Al  Al23  1  0.75000000  0.75000000  0.25000000  1
  Al  Al24  1  0.99786356  0.00218495  0.49658497  1
  Al  Al25  1  0.99786626  0.49781564  0.49658061  1
  Al  Al26  1  0.25000000  0.25000000  0.25000000  1
  Al  Al27  1  0.25000000  0.75000000  0.25000000  1
  Al  Al28  1  0.50213374  0.00218436  0.00341939  1
  Al  Al29  1  0.50213644  0.49781505  0.00341503  1
  Al  Al30  1  0.99786549  0.00218676  0.00341484  1
  Al  Al31  1  0.99786530  0.49781505  0.00342076  1
