# generated using pymatgen
data_TiFeNi2
_symmetry_space_group_name_H-M   'P 1'
_cell_length_a   4.45819162
_cell_length_b   5.87990392
_cell_length_c   8.12296500
_cell_angle_alpha   106.74960028
_cell_angle_beta   90.34565626
_cell_angle_gamma   105.83364930
_symmetry_Int_Tables_number   1
_chemical_formula_structural   TiFeNi2
_chemical_formula_sum   'Ti4 Fe4 Ni8'
_cell_volume   195.33272496
_cell_formula_units_Z   4
loop_
 _symmetry_equiv_pos_site_id
 _symmetry_equiv_pos_as_xyz
  1  'x, y, z'
loop_
 _atom_site_type_symbol
 _atom_site_label
 _atom_site_symmetry_multiplicity
 _atom_site_fract_x
 _atom_site_fract_y
 _atom_site_fract_z
 _atom_site_occupancy
  Ti  Ti0  1  0.52467633  0.46638907  0.48985573  1
  Ti  Ti1  1  0.21951496  0.72540725  0.76142323  1
  Ti  Ti2  1  0.59450141  0.88475270  0.36057946  1
  Ti  Ti3  1  0.81622224  0.97633119  0.69772729  1
  Fe  Fe4  1  0.16794931  0.05967849  0.29950637  1
  Fe  Fe5  1  0.07489020  0.69283136  0.44166772  1
  Fe  Fe6  1  0.45233402  0.82439400  0.06258540  1
  Fe  Fe7  1  0.89840686  0.62524539  0.12630207  1
  Ni  Ni8  1  0.98768729  0.99329221  0.99775663  1
  Ni  Ni9  1  0.37130600  0.13057698  0.63298971  1
  Ni  Ni10  1  0.12955139  0.37520586  0.88628926  1
  Ni  Ni11  1  0.54922501  0.18524439  0.94288527  1
  Ni  Ni12  1  0.31642047  0.43673709  0.18550893  1
  Ni  Ni13  1  0.76693737  0.26378082  0.24406734  1
  Ni  Ni14  1  0.94997152  0.30953169  0.55521116  1
  Ni  Ni15  1  0.68040565  0.55060153  0.81564443  1
