# generated using pymatgen
data_VFeNi2
_symmetry_space_group_name_H-M   'P 1'
_cell_length_a   4.34001211
_cell_length_b   5.80122621
_cell_length_c   8.00765884
_cell_angle_alpha   106.58097459
_cell_angle_beta   91.25938335
_cell_angle_gamma   105.81554399
_symmetry_Int_Tables_number   1
_chemical_formula_structural   VFeNi2
_chemical_formula_sum   'V4 Fe4 Ni8'
_cell_volume   184.82257189
_cell_formula_units_Z   4
loop_
 _symmetry_equiv_pos_site_id
 _symmetry_equiv_pos_as_xyz
  1  'x, y, z'
loop_
 _atom_site_type_symbol
 _atom_site_label
 _atom_site_symmetry_multiplicity
 _atom_site_fract_x
 _atom_site_fract_y
 _atom_site_fract_z
 _atom_site_occupancy
  V  V0  1  0.52072275  0.48010739  0.49443519  1
  V  V1  1  0.22468542  0.73357216  0.75506126  1
  V  V2  1  0.60398615  0.88081012  0.36432379  1
  V  V3  1  0.80605954  0.95872710  0.69041915  1
  Fe  Fe4  1  0.17660291  0.06588033  0.30796394  1
  Fe  Fe5  1  0.07980983  0.69083199  0.44671380  1
  Fe  Fe6  1  0.45370272  0.82420547  0.06426555  1
  Fe  Fe7  1  0.88942428  0.62201072  0.12748653  1
  Ni  Ni8  1  0.99645273  0.99511533  0.99661516  1
  Ni  Ni9  1  0.37108895  0.12417156  0.62733936  1
  Ni  Ni10  1  0.12240556  0.37616518  0.87863685  1
  Ni  Ni11  1  0.55592319  0.18273761  0.93790000  1
  Ni  Ni12  1  0.31663677  0.43829555  0.18708293  1
  Ni  Ni13  1  0.75589486  0.25740779  0.24888745  1
  Ni  Ni14  1  0.94659196  0.31023359  0.55958639  1
  Ni  Ni15  1  0.68001236  0.55972812  0.81328262  1
