# generated using pymatgen
data_CrFeNi2
_symmetry_space_group_name_H-M   'P 1'
_cell_length_a   4.32196558
_cell_length_b   5.74519199
_cell_length_c   7.99647016
_cell_angle_alpha   106.60743555
_cell_angle_beta   91.52909096
_cell_angle_gamma   105.84496741
_symmetry_Int_Tables_number   1
_chemical_formula_structural   CrFeNi2
_chemical_formula_sum   'Cr4 Fe4 Ni8'
_cell_volume   181.85935073
_cell_formula_units_Z   4
loop_
 _symmetry_equiv_pos_site_id
 _symmetry_equiv_pos_as_xyz
  1  'x, y, z'
loop_
 _atom_site_type_symbol
 _atom_site_label
 _atom_site_symmetry_multiplicity
 _atom_site_fract_x
 _atom_site_fract_y
 _atom_site_fract_z
 _atom_site_occupancy
  Cr  Cr0  1  0.51405675  0.50163345  0.49802809  1
  Cr  Cr1  1  0.23550433  0.74392228  0.75969615  1
  Cr  Cr2  1  0.62949910  0.87977305  0.36248743  1
  Cr  Cr3  1  0.79624480  0.93243549  0.68102104  1
  Fe  Fe4  1  0.19667744  0.06239380  0.31263700  1
  Fe  Fe5  1  0.08260087  0.68916149  0.43296338  1
  Fe  Fe6  1  0.43033573  0.80939038  0.06486534  1
  Fe  Fe7  1  0.88835975  0.63876496  0.13256485  1
  Ni  Ni8  1  -0.00717970  -0.00594466  0.00027108  1
  Ni  Ni9  1  0.37395695  0.12113145  0.62560948  1
  Ni  Ni10  1  0.11176824  0.36990810  0.87521889  1
  Ni  Ni11  1  0.55761002  0.18269769  0.94112411  1
  Ni  Ni12  1  0.31529024  0.44360605  0.18517266  1
  Ni  Ni13  1  0.75760442  0.26021734  0.24992704  1
  Ni  Ni14  1  0.94372753  0.31359998  0.56199422  1
  Ni  Ni15  1  0.67394352  0.55730917  0.81641924  1
