# generated using pymatgen
data_MnFeNi2
_symmetry_space_group_name_H-M   'P 1'
_cell_length_a   4.29538348
_cell_length_b   5.55369266
_cell_length_c   7.80217754
_cell_angle_alpha   106.42179363
_cell_angle_beta   89.80500424
_cell_angle_gamma   104.90825516
_symmetry_Int_Tables_number   1
_chemical_formula_structural   MnFeNi2
_chemical_formula_sum   'Mn4 Fe4 Ni8'
_cell_volume   172.03746879
_cell_formula_units_Z   4
loop_
 _symmetry_equiv_pos_site_id
 _symmetry_equiv_pos_as_xyz
  1  'x, y, z'
loop_
 _atom_site_type_symbol
 _atom_site_label
 _atom_site_symmetry_multiplicity
 _atom_site_fract_x
 _atom_site_fract_y
 _atom_site_fract_z
 _atom_site_occupancy
  Mn  Mn0  1  0.49931383  0.52089035  0.50459929  1
  Mn  Mn1  1  0.26052758  0.74711665  0.74706517  1
  Mn  Mn2  1  0.62270585  0.86989827  0.37160079  1
  Mn  Mn3  1  0.80716267  0.92401332  0.68226287  1
  Fe  Fe4  1  0.18934975  0.05749257  0.31097601  1
  Fe  Fe5  1  0.06178961  0.68724104  0.44003915  1
  Fe  Fe6  1  0.43183206  0.80945469  0.06273503  1
  Fe  Fe7  1  0.88327907  0.63781048  0.13092604  1
  Ni  Ni8  1  0.99820825  0.99552688  0.99759763  1
  Ni  Ni9  1  0.37681383  0.12161123  0.62468604  1
  Ni  Ni10  1  0.12108606  0.37491824  0.87409524  1
  Ni  Ni11  1  0.56376470  0.18415565  0.93889728  1
  Ni  Ni12  1  0.30990125  0.44043233  0.18773303  1
  Ni  Ni13  1  0.75011434  0.25538379  0.25024812  1
  Ni  Ni14  1  0.93665199  0.31144259  0.56118616  1
  Ni  Ni15  1  0.68749917  0.56261194  0.81535214  1
