# generated using pymatgen
data_FeCuNi2
_symmetry_space_group_name_H-M   'P 1'
_cell_length_a   4.39100808
_cell_length_b   5.63086796
_cell_length_c   7.98388752
_cell_angle_alpha   106.56891163
_cell_angle_beta   89.82468911
_cell_angle_gamma   105.00385431
_symmetry_Int_Tables_number   1
_chemical_formula_structural   FeCuNi2
_chemical_formula_sum   'Fe4 Cu4 Ni8'
_cell_volume   182.22140779
_cell_formula_units_Z   4
loop_
 _symmetry_equiv_pos_site_id
 _symmetry_equiv_pos_as_xyz
  1  'x, y, z'
loop_
 _atom_site_type_symbol
 _atom_site_label
 _atom_site_symmetry_multiplicity
 _atom_site_fract_x
 _atom_site_fract_y
 _atom_site_fract_z
 _atom_site_occupancy
  Cu  Cu0  1  0.50600106  0.49934090  0.50338291  1
  Cu  Cu1  1  0.24382296  0.74974561  0.74950330  1
  Cu  Cu2  1  0.62637116  0.87655549  0.37555949  1
  Cu  Cu3  1  0.81079115  0.94008652  0.69108746  1
  Fe  Fe4  1  0.18521202  0.06958397  0.31096513  1
  Fe  Fe5  1  0.06578068  0.67880007  0.43173985  1
  Fe  Fe6  1  0.44269077  0.81655813  0.05850747  1
  Fe  Fe7  1  0.87432682  0.61436910  0.12045092  1
  Ni  Ni8  1  0.99911970  0.00435249  0.00662045  1
  Ni  Ni9  1  0.36836184  0.12221914  0.62157613  1
  Ni  Ni10  1  0.12882010  0.37780372  0.87611367  1
  Ni  Ni11  1  0.55998746  0.18832012  0.93845691  1
  Ni  Ni12  1  0.31532431  0.44075214  0.18647763  1
  Ni  Ni13  1  0.74777470  0.24991239  0.24913565  1
  Ni  Ni14  1  0.94020911  0.31311460  0.56249860  1
  Ni  Ni15  1  0.68540619  0.55848560  0.81792441  1
