# generated using pymatgen
data_ZnFeNi2
_symmetry_space_group_name_H-M   'P 1'
_cell_length_a   4.45269464
_cell_length_b   5.66931313
_cell_length_c   8.06530286
_cell_angle_alpha   106.19407748
_cell_angle_beta   89.50249559
_cell_angle_gamma   104.97403257
_symmetry_Int_Tables_number   1
_chemical_formula_structural   ZnFeNi2
_chemical_formula_sum   'Zn4 Fe4 Ni8'
_cell_volume   188.43944321
_cell_formula_units_Z   4
loop_
 _symmetry_equiv_pos_site_id
 _symmetry_equiv_pos_as_xyz
  1  'x, y, z'
loop_
 _atom_site_type_symbol
 _atom_site_label
 _atom_site_symmetry_multiplicity
 _atom_site_fract_x
 _atom_site_fract_y
 _atom_site_fract_z
 _atom_site_occupancy
  Zn  Zn0  1  0.50644443  0.48546944  0.49953640  1
  Zn  Zn1  1  0.23598993  0.74603530  0.75192961  1
  Zn  Zn2  1  0.62494385  0.88337401  0.37481775  1
  Zn  Zn3  1  0.81529734  0.95665812  0.69769990  1
  Fe  Fe4  1  0.18219621  0.06093970  0.30642709  1
  Fe  Fe5  1  0.06343627  0.68338938  0.42381689  1
  Fe  Fe6  1  0.44307680  0.81596714  0.05976904  1
  Fe  Fe7  1  0.87439536  0.61078388  0.11920842  1
  Ni  Ni8  1  0.99787181  0.00263446  0.00860908  1
  Ni  Ni9  1  0.36978318  0.12269818  0.62742493  1
  Ni  Ni10  1  0.13242693  0.38053431  0.88051354  1
  Ni  Ni11  1  0.55725222  0.18828793  0.94130776  1
  Ni  Ni12  1  0.31553998  0.43894283  0.18522522  1
  Ni  Ni13  1  0.75157908  0.24945276  0.24612256  1
  Ni  Ni14  1  0.94689584  0.31638473  0.56033671  1
  Ni  Ni15  1  0.68287079  0.55844784  0.81725509  1
