# generated using pymatgen
data_FeNi2Mo
_symmetry_space_group_name_H-M   'P 1'
_cell_length_a   4.43882885
_cell_length_b   5.86408741
_cell_length_c   8.17980864
_cell_angle_alpha   106.26095670
_cell_angle_beta   90.65634495
_cell_angle_gamma   105.56336227
_symmetry_Int_Tables_number   1
_chemical_formula_structural   FeNi2Mo
_chemical_formula_sum   'Fe4 Ni8 Mo4'
_cell_volume   196.04094456
_cell_formula_units_Z   4
loop_
 _symmetry_equiv_pos_site_id
 _symmetry_equiv_pos_as_xyz
  1  'x, y, z'
loop_
 _atom_site_type_symbol
 _atom_site_label
 _atom_site_symmetry_multiplicity
 _atom_site_fract_x
 _atom_site_fract_y
 _atom_site_fract_z
 _atom_site_occupancy
  Mo  Mo0  1  0.51613124  0.47952094  0.49136053  1
  Mo  Mo1  1  0.22704847  0.73767733  0.75890517  1
  Mo  Mo2  1  0.62165810  0.88681391  0.36569336  1
  Mo  Mo3  1  0.80626084  0.95560508  0.69531414  1
  Fe  Fe4  1  0.18067834  0.06578527  0.30509314  1
  Fe  Fe5  1  0.07836263  0.68767128  0.43317348  1
  Fe  Fe6  1  0.44468442  0.81778704  0.06063600  1
  Fe  Fe7  1  0.89157025  0.62826342  0.12663418  1
  Ni  Ni8  1  0.99277819  0.99583496  0.00482861  1
  Ni  Ni9  1  0.36920918  0.12530117  0.62518161  1
  Ni  Ni10  1  0.11731164  0.37415996  0.88219059  1
  Ni  Ni11  1  0.55259782  0.18619896  0.94422914  1
  Ni  Ni12  1  0.31772652  0.43709577  0.18148300  1
  Ni  Ni13  1  0.75992226  0.25859555  0.24304890  1
  Ni  Ni14  1  0.95060720  0.31332498  0.56206843  1
  Ni  Ni15  1  0.67345290  0.55036438  0.82015972  1
