# generated using pymatgen
data_FeNi2Ru
_symmetry_space_group_name_H-M   'P 1'
_cell_length_a   4.42305528
_cell_length_b   5.72665790
_cell_length_c   8.02530851
_cell_angle_alpha   106.39784543
_cell_angle_beta   89.62862929
_cell_angle_gamma   105.03694392
_symmetry_Int_Tables_number   1
_chemical_formula_structural   FeNi2Ru
_chemical_formula_sum   'Fe4 Ni8 Ru4'
_cell_volume   187.84044933
_cell_formula_units_Z   4
loop_
 _symmetry_equiv_pos_site_id
 _symmetry_equiv_pos_as_xyz
  1  'x, y, z'
loop_
 _atom_site_type_symbol
 _atom_site_label
 _atom_site_symmetry_multiplicity
 _atom_site_fract_x
 _atom_site_fract_y
 _atom_site_fract_z
 _atom_site_occupancy
  Ru  Ru0  1  0.49625179  0.49800020  0.49676196  1
  Ru  Ru1  1  0.24834700  0.74918276  0.75700710  1
  Ru  Ru2  1  0.63125161  0.87495200  0.36832244  1
  Ru  Ru3  1  0.81429865  0.93647356  0.68977848  1
  Fe  Fe4  1  0.19543793  0.06594439  0.30678346  1
  Fe  Fe5  1  0.06574994  0.68181729  0.43623348  1
  Fe  Fe6  1  0.42717800  0.81965654  0.06209711  1
  Fe  Fe7  1  0.87947967  0.62344921  0.12053891  1
  Ni  Ni8  1  0.99394626  0.00069830  0.00614012  1
  Ni  Ni9  1  0.37642213  0.12601016  0.62556930  1
  Ni  Ni10  1  0.12407370  0.37511413  0.87822605  1
  Ni  Ni11  1  0.56245549  0.18939844  0.94256992  1
  Ni  Ni12  1  0.31212516  0.44101666  0.18222914  1
  Ni  Ni13  1  0.75505143  0.25312096  0.24537802  1
  Ni  Ni14  1  0.93693539  0.30786571  0.56296037  1
  Ni  Ni15  1  0.68099585  0.55729969  0.81940415  1
