# generated using pymatgen
data_FeNi2Pd
_symmetry_space_group_name_H-M   'P 1'
_cell_length_a   4.48208241
_cell_length_b   5.72629698
_cell_length_c   8.18095355
_cell_angle_alpha   106.59979240
_cell_angle_beta   89.82411602
_cell_angle_gamma   104.85330314
_symmetry_Int_Tables_number   1
_chemical_formula_structural   FeNi2Pd
_chemical_formula_sum   'Fe4 Ni8 Pd4'
_cell_volume   193.93693947
_cell_formula_units_Z   4
loop_
 _symmetry_equiv_pos_site_id
 _symmetry_equiv_pos_as_xyz
  1  'x, y, z'
loop_
 _atom_site_type_symbol
 _atom_site_label
 _atom_site_symmetry_multiplicity
 _atom_site_fract_x
 _atom_site_fract_y
 _atom_site_fract_z
 _atom_site_occupancy
  Pd  Pd0  1  0.49965392  0.48673439  0.49211696  1
  Pd  Pd1  1  0.24230614  0.74338074  0.75587715  1
  Pd  Pd2  1  0.61800026  0.88247333  0.36653162  1
  Pd  Pd3  1  0.81697735  0.95164274  0.69312151  1
  Fe  Fe4  1  0.17539655  0.05790711  0.30596711  1
  Fe  Fe5  1  0.05791689  0.68316677  0.41837071  1
  Fe  Fe6  1  0.44374370  0.80686907  0.05748406  1
  Fe  Fe7  1  0.89587766  0.62480152  0.13046754  1
  Ni  Ni8  1  0.99768182  0.99767326  0.00843992  1
  Ni  Ni9  1  0.36974918  0.13027959  0.62989143  1
  Ni  Ni10  1  0.12444651  0.37712993  0.88761421  1
  Ni  Ni11  1  0.56208733  0.19691807  0.94828485  1
  Ni  Ni12  1  0.30962846  0.43510055  0.18141243  1
  Ni  Ni13  1  0.76309184  0.25907552  0.24026928  1
  Ni  Ni14  1  0.93936509  0.31602578  0.55832010  1
  Ni  Ni15  1  0.68407731  0.55082167  0.82583111  1
