# generated using pymatgen
data_FeNi2Ir
_symmetry_space_group_name_H-M   'P 1'
_cell_length_a   4.43565849
_cell_length_b   5.70119403
_cell_length_c   8.04171411
_cell_angle_alpha   106.37980154
_cell_angle_beta   89.82865826
_cell_angle_gamma   105.26156616
_symmetry_Int_Tables_number   1
_chemical_formula_structural   FeNi2Ir
_chemical_formula_sum   'Fe4 Ni8 Ir4'
_cell_volume   187.67041111
_cell_formula_units_Z   4
loop_
 _symmetry_equiv_pos_site_id
 _symmetry_equiv_pos_as_xyz
  1  'x, y, z'
loop_
 _atom_site_type_symbol
 _atom_site_label
 _atom_site_symmetry_multiplicity
 _atom_site_fract_x
 _atom_site_fract_y
 _atom_site_fract_z
 _atom_site_occupancy
  Ir  Ir0  1  0.49227051  0.48925054  0.49098544  1
  Ir  Ir1  1  0.24927137  0.74867880  0.75626886  1
  Ir  Ir2  1  0.63232975  0.87633510  0.36125628  1
  Ir  Ir3  1  0.82041954  0.94246091  0.69288142  1
  Fe  Fe4  1  0.19541815  0.05196343  0.30681628  1
  Fe  Fe5  1  0.06216588  0.69193091  0.43229180  1
  Fe  Fe6  1  0.42032202  0.80863355  0.06596098  1
  Fe  Fe7  1  0.88284519  0.63325794  0.12640434  1
  Ni  Ni8  1  0.99767996  0.99766991  0.00895035  1
  Ni  Ni9  1  0.37517263  0.12608590  0.62429376  1
  Ni  Ni10  1  0.12346178  0.37810771  0.88244864  1
  Ni  Ni11  1  0.56399500  0.19198698  0.94485877  1
  Ni  Ni12  1  0.30696588  0.43782028  0.18255840  1
  Ni  Ni13  1  0.75655755  0.25632739  0.24400818  1
  Ni  Ni14  1  0.93668094  0.31085040  0.55923336  1
  Ni  Ni15  1  0.68444390  0.55864026  0.82078313  1
