# generated using pymatgen
data_FeNi
_symmetry_space_group_name_H-M   'P 1'
_cell_length_a   4.29647410
_cell_length_b   5.62875505
_cell_length_c   7.88611492
_cell_angle_alpha   106.32012721
_cell_angle_beta   89.97482117
_cell_angle_gamma   104.89481085
_symmetry_Int_Tables_number   1
_chemical_formula_structural   FeNi
_chemical_formula_sum   'Fe8 Ni8'
_cell_volume   176.35094074
_cell_formula_units_Z   8
loop_
 _symmetry_equiv_pos_site_id
 _symmetry_equiv_pos_as_xyz
  1  'x, y, z'
loop_
 _atom_site_type_symbol
 _atom_site_label
 _atom_site_symmetry_multiplicity
 _atom_site_fract_x
 _atom_site_fract_y
 _atom_site_fract_z
 _atom_site_occupancy
  Fe  Fe0  1  0.50110626  0.50228408  0.49406755  1
  Fe  Fe1  1  0.24782396  0.74656308  0.74861770  1
  Fe  Fe2  1  0.62606039  0.87424263  0.37676194  1
  Fe  Fe3  1  0.81626202  0.94590656  0.68901082  1
  Fe  Fe4  1  0.18648042  0.06257098  0.31618784  1
  Fe  Fe5  1  0.05533907  0.69210373  0.43583215  1
  Fe  Fe6  1  0.44238583  0.81459494  0.06421014  1
  Fe  Fe7  1  0.87262021  0.61577188  0.12633338  1
  Ni  Ni8  1  0.00226328  0.99695748  0.00205456  1
  Ni  Ni9  1  0.37542193  0.12459363  0.62452903  1
  Ni  Ni10  1  0.12518174  0.37559980  0.87529637  1
  Ni  Ni11  1  0.56294734  0.18547152  0.93693581  1
  Ni  Ni12  1  0.31157028  0.43688826  0.18641171  1
  Ni  Ni13  1  0.74765282  0.24737056  0.25164110  1
  Ni  Ni14  1  0.93925147  0.31464821  0.56096190  1
  Ni  Ni15  1  0.68763300  0.56443270  0.81114799  1
