# generated using pymatgen
data_FeNi2Pt
_symmetry_space_group_name_H-M   'P 1'
_cell_length_a   4.51828756
_cell_length_b   5.81934863
_cell_length_c   8.24896860
_cell_angle_alpha   106.67324282
_cell_angle_beta   89.70386054
_cell_angle_gamma   105.05157122
_symmetry_Int_Tables_number   1
_chemical_formula_structural   FeNi2Pt
_chemical_formula_sum   'Fe4 Ni8 Pt4'
_cell_volume   200.08252996
_cell_formula_units_Z   4
loop_
 _symmetry_equiv_pos_site_id
 _symmetry_equiv_pos_as_xyz
  1  'x, y, z'
loop_
 _atom_site_type_symbol
 _atom_site_label
 _atom_site_symmetry_multiplicity
 _atom_site_fract_x
 _atom_site_fract_y
 _atom_site_fract_z
 _atom_site_occupancy
  Pt  Pt0  1  0.49844376  0.48388503  0.49242471  1
  Pt  Pt1  1  0.24033919  0.74309644  0.75928921  1
  Pt  Pt2  1  0.62425664  0.87950644  0.36408751  1
  Pt  Pt3  1  0.81791456  0.95407198  0.69647590  1
  Fe  Fe4  1  0.18315252  0.06999447  0.30371268  1
  Fe  Fe5  1  0.06174374  0.67922560  0.43287812  1
  Fe  Fe6  1  0.44702090  0.81884666  0.05961625  1
  Fe  Fe7  1  0.87841977  0.61149915  0.11754343  1
  Ni  Ni8  1  0.00075027  0.00441348  0.00994313  1
  Ni  Ni9  1  0.37280604  0.12585348  0.62825837  1
  Ni  Ni10  1  0.12835643  0.37857295  0.88564640  1
  Ni  Ni11  1  0.56107452  0.19650788  0.94577441  1
  Ni  Ni12  1  0.30867530  0.43748666  0.17953272  1
  Ni  Ni13  1  0.75674773  0.25346026  0.24148536  1
  Ni  Ni14  1  0.93857182  0.30790177  0.56027088  1
  Ni  Ni15  1  0.68172678  0.55567775  0.82306096  1
