# generated using pymatgen
data_FeNi2Au
_symmetry_space_group_name_H-M   'P 1'
_cell_length_a   4.53518352
_cell_length_b   5.74673416
_cell_length_c   8.36947901
_cell_angle_alpha   106.80144971
_cell_angle_beta   89.23544911
_cell_angle_gamma   104.85547494
_symmetry_Int_Tables_number   1
_chemical_formula_structural   FeNi2Au
_chemical_formula_sum   'Fe4 Ni8 Au4'
_cell_volume   201.40272390
_cell_formula_units_Z   4
loop_
 _symmetry_equiv_pos_site_id
 _symmetry_equiv_pos_as_xyz
  1  'x, y, z'
loop_
 _atom_site_type_symbol
 _atom_site_label
 _atom_site_symmetry_multiplicity
 _atom_site_fract_x
 _atom_site_fract_y
 _atom_site_fract_z
 _atom_site_occupancy
  Au  Au0  1  0.50103055  0.48122540  0.48763060  1
  Au  Au1  1  0.23951154  0.73832388  0.76148342  1
  Au  Au2  1  0.62903199  0.89043641  0.36481261  1
  Au  Au3  1  0.81870088  0.96191796  0.69747380  1
  Fe  Fe4  1  0.18373781  0.04231633  0.28672813  1
  Fe  Fe5  1  0.06396346  0.68872842  0.40893899  1
  Fe  Fe6  1  0.41938265  0.81086086  0.06846978  1
  Fe  Fe7  1  0.90592659  0.63071613  0.12722701  1
  Ni  Ni8  1  0.98665309  0.99522762  0.01253735  1
  Ni  Ni9  1  0.36982545  0.13453059  0.62976557  1
  Ni  Ni10  1  0.13215319  0.37813701  0.89632430  1
  Ni  Ni11  1  0.55794540  0.19439086  0.95524471  1
  Ni  Ni12  1  0.30373126  0.43063186  0.17974197  1
  Ni  Ni13  1  0.76399393  0.25910403  0.23523191  1
  Ni  Ni14  1  0.94483590  0.31882484  0.55319682  1
  Ni  Ni15  1  0.67957630  0.54462779  0.83519302  1
