# generated using pymatgen
data_FeCoNi2
_symmetry_space_group_name_H-M   'P 1'
_cell_length_a   4.30612532
_cell_length_b   5.55793246
_cell_length_c   7.86685844
_cell_angle_alpha   106.57749459
_cell_angle_beta   89.80104129
_cell_angle_gamma   104.88533740
_symmetry_Int_Tables_number   1
_chemical_formula_structural   FeCoNi2
_chemical_formula_sum   'Fe4 Co4 Ni8'
_cell_volume   173.90106095
_cell_formula_units_Z   4
loop_
 _symmetry_equiv_pos_site_id
 _symmetry_equiv_pos_as_xyz
  1  'x, y, z'
loop_
 _atom_site_type_symbol
 _atom_site_label
 _atom_site_symmetry_multiplicity
 _atom_site_fract_x
 _atom_site_fract_y
 _atom_site_fract_z
 _atom_site_occupancy
  Co  Co0  1  0.49860197  0.50665478  0.50010478  1
  Co  Co1  1  0.24927619  0.74736361  0.74564878  1
  Co  Co2  1  0.62505673  0.86761975  0.37649158  1
  Co  Co3  1  0.81174475  0.93365845  0.68338478  1
  Fe  Fe4  1  0.18859040  0.06405136  0.31662753  1
  Fe  Fe5  1  0.06373431  0.68938649  0.43682009  1
  Fe  Fe6  1  0.43981332  0.81502486  0.06211672  1
  Fe  Fe7  1  0.87310763  0.62525943  0.12829733  1
  Ni  Ni8  1  0.00252698  0.99844236  0.99980651  1
  Ni  Ni9  1  0.37576011  0.12210604  0.62451358  1
  Ni  Ni10  1  0.12358856  0.37654879  0.87415334  1
  Ni  Ni11  1  0.56478641  0.18720102  0.93734406  1
  Ni  Ni12  1  0.30985940  0.43947880  0.18780346  1
  Ni  Ni13  1  0.75020820  0.25051867  0.25239312  1
  Ni  Ni14  1  0.93624985  0.31237865  0.56190318  1
  Ni  Ni15  1  0.68709522  0.56430691  0.81259116  1
