# generated using pymatgen
data_HfFeNi2
_symmetry_space_group_name_H-M   'P 1'
_cell_length_a   4.65834717
_cell_length_b   5.77755517
_cell_length_c   8.38754813
_cell_angle_alpha   102.42170441
_cell_angle_beta   88.16851875
_cell_angle_gamma   103.51934201
_symmetry_Int_Tables_number   1
_chemical_formula_structural   HfFeNi2
_chemical_formula_sum   'Hf4 Fe4 Ni8'
_cell_volume   214.30831730
_cell_formula_units_Z   4
loop_
 _symmetry_equiv_pos_site_id
 _symmetry_equiv_pos_as_xyz
  1  'x, y, z'
loop_
 _atom_site_type_symbol
 _atom_site_label
 _atom_site_symmetry_multiplicity
 _atom_site_fract_x
 _atom_site_fract_y
 _atom_site_fract_z
 _atom_site_occupancy
  Hf  Hf0  1  0.62664290  0.47732857  0.49872330  1
  Hf  Hf1  1  0.18452850  0.66561727  0.75380495  1
  Hf  Hf2  1  0.62064825  0.91936841  0.35646427  1
  Hf  Hf3  1  0.79772063  0.03735262  0.71359628  1
  Fe  Fe4  1  0.21720668  0.05738145  0.22297332  1
  Fe  Fe5  1  0.10271528  0.76011867  0.44949686  1
  Fe  Fe6  1  0.41547281  0.77440608  0.05918789  1
  Fe  Fe7  1  0.90930019  0.65545054  0.15490035  1
  Ni  Ni8  1  0.92801807  0.93084005  0.98143237  1
  Ni  Ni9  1  0.33114135  0.16738710  0.66949172  1
  Ni  Ni10  1  0.07968289  0.35917570  0.94978766  1
  Ni  Ni11  1  0.47127119  0.15394895  0.95932561  1
  Ni  Ni12  1  0.31579920  0.47304317  0.22477928  1
  Ni  Ni13  1  0.77704991  0.25382769  0.20152711  1
  Ni  Ni14  1  0.07051128  0.29336196  0.46318695  1
  Ni  Ni15  1  0.65229088  0.52139179  0.84132206  1
