# generated using pymatgen
data_CdFeNi2
_symmetry_space_group_name_H-M   'P 1'
_cell_length_a   4.81668044
_cell_length_b   5.43863368
_cell_length_c   8.98551804
_cell_angle_alpha   109.03800655
_cell_angle_beta   89.88314374
_cell_angle_gamma   101.21718526
_symmetry_Int_Tables_number   1
_chemical_formula_structural   CdFeNi2
_chemical_formula_sum   'Cd4 Fe4 Ni8'
_cell_volume   217.78109045
_cell_formula_units_Z   4
loop_
 _symmetry_equiv_pos_site_id
 _symmetry_equiv_pos_as_xyz
  1  'x, y, z'
loop_
 _atom_site_type_symbol
 _atom_site_label
 _atom_site_symmetry_multiplicity
 _atom_site_fract_x
 _atom_site_fract_y
 _atom_site_fract_z
 _atom_site_occupancy
  Cd  Cd0  1  0.52418798  0.47047114  0.49533828  1
  Cd  Cd1  1  0.22628161  0.72677963  0.75953745  1
  Cd  Cd2  1  0.61287985  0.89120121  0.36722102  1
  Cd  Cd3  1  0.80328929  0.99831800  0.70713407  1
  Fe  Fe4  1  0.15984842  0.04284800  0.27622977  1
  Fe  Fe5  1  0.07006662  0.69575582  0.42215535  1
  Fe  Fe6  1  0.45779953  0.81371071  0.05814161  1
  Fe  Fe7  1  0.88151919  0.60952213  0.10794210  1
  Ni  Ni8  1  0.98607846  0.99936411  0.01336052  1
  Ni  Ni9  1  0.33447754  0.13255082  0.64180382  1
  Ni  Ni10  1  0.16686662  0.38183076  0.90860952  1
  Ni  Ni11  1  0.54717795  0.19040122  0.96670065  1
  Ni  Ni12  1  0.28814005  0.43869953  0.18558864  1
  Ni  Ni13  1  0.76746976  0.27139401  0.23402269  1
  Ni  Ni14  1  0.98496388  0.30592062  0.52246154  1
  Ni  Ni15  1  0.68895325  0.53123232  0.83375295  1
