# generated using pymatgen
data_ScFeNi2
_symmetry_space_group_name_H-M   'P 1'
_cell_length_a   4.74106731
_cell_length_b   5.69644251
_cell_length_c   8.51319449
_cell_angle_alpha   101.86927541
_cell_angle_beta   87.36141444
_cell_angle_gamma   104.67344842
_symmetry_Int_Tables_number   1
_chemical_formula_structural   ScFeNi2
_chemical_formula_sum   'Sc4 Fe4 Ni8'
_cell_volume   217.65907099
_cell_formula_units_Z   4
loop_
 _symmetry_equiv_pos_site_id
 _symmetry_equiv_pos_as_xyz
  1  'x, y, z'
loop_
 _atom_site_type_symbol
 _atom_site_label
 _atom_site_symmetry_multiplicity
 _atom_site_fract_x
 _atom_site_fract_y
 _atom_site_fract_z
 _atom_site_occupancy
  Sc  Sc0  1  0.63789206  0.46573774  0.49136034  1
  Sc  Sc1  1  0.18399643  0.65952674  0.73606771  1
  Sc  Sc2  1  0.60358234  0.91705524  0.37941256  1
  Sc  Sc3  1  0.79688983  0.04769250  0.72434316  1
  Fe  Fe4  1  0.21766208  0.05335402  0.21952465  1
  Fe  Fe5  1  0.08313017  0.79086795  0.43819771  1
  Fe  Fe6  1  0.44090736  0.78193580  0.04882513  1
  Fe  Fe7  1  0.86131356  0.62861831  0.14936573  1
  Ni  Ni8  1  0.95830715  0.92916395  0.97569020  1
  Ni  Ni9  1  0.32498298  0.16039471  0.68114106  1
  Ni  Ni10  1  0.08764867  0.37313059  0.95222991  1
  Ni  Ni11  1  0.48622150  0.17844776  0.97007923  1
  Ni  Ni12  1  0.30099650  0.48675535  0.23019984  1
  Ni  Ni13  1  0.78279042  0.22528284  0.20111012  1
  Ni  Ni14  1  0.07859959  0.27353003  0.46491151  1
  Ni  Ni15  1  0.65507937  0.52850650  0.83754115  1
