# generated using pymatgen
data_TaFeNi2
_symmetry_space_group_name_H-M   'P 1'
_cell_length_a   4.48472684
_cell_length_b   5.95227526
_cell_length_c   8.24622760
_cell_angle_alpha   106.43132931
_cell_angle_beta   89.80066929
_cell_angle_gamma   105.71542509
_symmetry_Int_Tables_number   1
_chemical_formula_structural   TaFeNi2
_chemical_formula_sum   'Ta4 Fe4 Ni8'
_cell_volume   202.60616667
_cell_formula_units_Z   4
loop_
 _symmetry_equiv_pos_site_id
 _symmetry_equiv_pos_as_xyz
  1  'x, y, z'
loop_
 _atom_site_type_symbol
 _atom_site_label
 _atom_site_symmetry_multiplicity
 _atom_site_fract_x
 _atom_site_fract_y
 _atom_site_fract_z
 _atom_site_occupancy
  Ta  Ta0  1  0.53076584  0.47710397  0.48993061  1
  Ta  Ta1  1  0.21097191  0.71959187  0.76884880  1
  Ta  Ta2  1  0.62348246  0.89359502  0.35187710  1
  Ta  Ta3  1  0.80894764  0.97618244  0.69981276  1
  Fe  Fe4  1  0.19538247  0.06759520  0.28840044  1
  Fe  Fe5  1  0.08006928  0.69443009  0.43326051  1
  Fe  Fe6  1  0.42995630  0.80886697  0.06262246  1
  Fe  Fe7  1  0.91841272  0.64396820  0.13296334  1
  Ni  Ni8  1  0.96930261  0.98331242  0.00275513  1
  Ni  Ni9  1  0.36665268  0.12387041  0.62690428  1
  Ni  Ni10  1  0.11377100  0.36814246  0.89643101  1
  Ni  Ni11  1  0.53610440  0.17552972  0.94848652  1
  Ni  Ni12  1  0.31861640  0.44822747  0.18675347  1
  Ni  Ni13  1  0.77338121  0.27236922  0.23756718  1
  Ni  Ni14  1  0.96122010  0.30923101  0.55189365  1
  Ni  Ni15  1  0.66296307  0.53798353  0.82149269  1
