# generated using pymatgen
data_LuFeNi2
_symmetry_space_group_name_H-M   'P 1'
_cell_length_a   3.96501096
_cell_length_b   6.70200455
_cell_length_c   9.92987141
_cell_angle_alpha   99.17220873
_cell_angle_beta   101.50501294
_cell_angle_gamma   107.23083466
_symmetry_Int_Tables_number   1
_chemical_formula_structural   LuFeNi2
_chemical_formula_sum   'Lu4 Fe4 Ni8'
_cell_volume   240.14143778
_cell_formula_units_Z   4
loop_
 _symmetry_equiv_pos_site_id
 _symmetry_equiv_pos_as_xyz
  1  'x, y, z'
loop_
 _atom_site_type_symbol
 _atom_site_label
 _atom_site_symmetry_multiplicity
 _atom_site_fract_x
 _atom_site_fract_y
 _atom_site_fract_z
 _atom_site_occupancy
  Lu  Lu0  1  0.42191107  0.38069605  0.46287467  1
  Lu  Lu1  1  0.19714696  0.67355353  0.72104843  1
  Lu  Lu2  1  0.64829775  0.93383757  0.36278672  1
  Lu  Lu3  1  0.98125926  0.11351020  0.84943348  1
  Fe  Fe4  1  0.12645962  0.09523569  0.15759450  1
  Fe  Fe5  1  0.02560828  0.65482699  0.39614141  1
  Fe  Fe6  1  0.48493242  0.92762663  0.04226267  1
  Fe  Fe7  1  0.92963403  0.69920210  0.16010500  1
  Ni  Ni8  1  0.83265543  0.73929710  0.92616698  1
  Ni  Ni9  1  0.29710541  0.01033866  0.58400555  1
  Ni  Ni10  1  0.24970673  0.53369513  0.96602388  1
  Ni  Ni11  1  0.67334648  0.32400963  0.02263234  1
  Ni  Ni12  1  0.35573330  0.50059402  0.21061543  1
  Ni  Ni13  1  0.77521845  0.29309541  0.25708851  1
  Ni  Ni14  1  0.92646325  0.23877062  0.61394355  1
  Ni  Ni15  1  0.57452153  0.38171068  0.76727690  1
