# generated using pymatgen
data_ZrFeNi2
_symmetry_space_group_name_H-M   'P 1'
_cell_length_a   5.10007068
_cell_length_b   5.45440950
_cell_length_c   8.81915772
_cell_angle_alpha   106.93871634
_cell_angle_beta   90.40847992
_cell_angle_gamma   105.49069245
_symmetry_Int_Tables_number   1
_chemical_formula_structural   ZrFeNi2
_chemical_formula_sum   'Zr4 Fe4 Ni8'
_cell_volume   225.19963157
_cell_formula_units_Z   4
loop_
 _symmetry_equiv_pos_site_id
 _symmetry_equiv_pos_as_xyz
  1  'x, y, z'
loop_
 _atom_site_type_symbol
 _atom_site_label
 _atom_site_symmetry_multiplicity
 _atom_site_fract_x
 _atom_site_fract_y
 _atom_site_fract_z
 _atom_site_occupancy
  Zr  Zr0  1  0.58008006  0.44596226  0.51458359  1
  Zr  Zr1  1  0.16822373  0.70311767  0.76753194  1
  Zr  Zr2  1  0.65217025  0.86153719  0.33959145  1
  Zr  Zr3  1  0.78511971  0.07867452  0.72327525  1
  Fe  Fe4  1  0.21446213  0.00677307  0.25053288  1
  Fe  Fe5  1  0.09775115  0.74487165  0.43882922  1
  Fe  Fe6  1  0.46007728  0.79856786  0.05759620  1
  Fe  Fe7  1  0.91413645  0.58732971  0.08055615  1
  Ni  Ni8  1  0.93482107  0.00008829  0.01567858  1
  Ni  Ni9  1  0.30580992  0.13380462  0.65854266  1
  Ni  Ni10  1  0.19168386  0.35921865  0.91866078  1
  Ni  Ni11  1  0.52261009  0.18657735  0.97510178  1
  Ni  Ni12  1  0.25164176  0.43330328  0.21653472  1
  Ni  Ni13  1  0.73848603  0.29968938  0.24115619  1
  Ni  Ni14  1  0.03958142  0.29831116  0.47549196  1
  Ni  Ni15  1  0.64334511  0.56217333  0.82633666  1
