# generated using pymatgen
data_TaTiNbVB4
_symmetry_space_group_name_H-M   'P 1'
_cell_length_a   6.38309193
_cell_length_b   6.38285688
_cell_length_c   9.02106309
_cell_angle_alpha   89.96587370
_cell_angle_beta   89.98076060
_cell_angle_gamma   90.02320958
_symmetry_Int_Tables_number   1
_chemical_formula_structural   TaTiNbVB4
_chemical_formula_sum   'Ta4 Ti4 Nb4 V4 B16'
_cell_volume   367.53930430
_cell_formula_units_Z   4
loop_
 _symmetry_equiv_pos_site_id
 _symmetry_equiv_pos_as_xyz
  1  'x, y, z'
loop_
 _atom_site_type_symbol
 _atom_site_label
 _atom_site_symmetry_multiplicity
 _atom_site_fract_x
 _atom_site_fract_y
 _atom_site_fract_z
 _atom_site_occupancy
  B  B0  1  0.74824825  0.75157520  0.49420637  1
  B  B1  1  0.74817293  0.24826440  0.49793257  1
  B  B2  1  0.25175640  0.75157649  0.49933307  1
  B  B3  1  0.25172491  0.24826125  0.50364349  1
  B  B4  1  0.50659971  0.50251014  0.24246837  1
  B  B5  1  0.50698110  0.99563214  0.24877563  1
  B  B6  1  0.74861002  0.73990438  0.00678092  1
  B  B7  1  0.74858685  0.26124309  0.00265419  1
  B  B8  1  0.99390975  0.50312195  0.24236261  1
  B  B9  1  0.99390894  0.99666819  0.24923119  1
  B  B10  1  0.25122134  0.73970249  0.00032705  1
  B  B11  1  0.25145308  0.26132131  0.99566327  1
  B  B12  1  0.49396538  0.49402513  0.75686503  1
  B  B13  1  0.49378660  0.00568850  0.75156084  1
  B  B14  1  0.00551953  0.49435029  0.75697964  1
  B  B15  1  0.00558605  0.00551904  0.75116032  1
  Nb  Nb16  1  0.25031533  0.74875927  0.75193025  1
  Nb  Nb17  1  0.99979335  0.00049419  0.49943388  1
  Nb  Nb18  1  0.99984540  0.49928587  0.49903024  1
  Nb  Nb19  1  0.25128788  0.74918953  0.24782765  1
  Ta  Ta20  1  0.74905086  0.25061353  0.75203168  1
  Ta  Ta21  1  0.74898599  0.74897679  0.75258175  1
  Ta  Ta22  1  0.50015981  0.49917576  0.49912207  1
  Ta  Ta23  1  0.99976186  0.00143682  0.00087416  1
  Ti  Ti24  1  0.50011587  0.00026692  0.49948203  1
  Ti  Ti25  1  0.74969280  0.25075749  0.24830112  1
  Ti  Ti26  1  0.25117519  0.25065625  0.24755406  1
  Ti  Ti27  1  0.50013869  0.00105206  0.00080107  1
  V  V28  1  0.25030643  0.25086232  0.75165850  1
  V  V29  1  0.74929844  0.74937506  0.24822515  1
  V  V30  1  0.50033134  0.49982752  0.00057353  1
  V  V31  1  0.99970991  0.49990665  0.00062829  1
