# generated using pymatgen
data_TaTiNbTcB4
_symmetry_space_group_name_H-M   'P 1'
_cell_length_a   6.36937318
_cell_length_b   6.40898536
_cell_length_c   9.03038947
_cell_angle_alpha   90.14353890
_cell_angle_beta   90.00093966
_cell_angle_gamma   89.98987805
_symmetry_Int_Tables_number   1
_chemical_formula_structural   TaTiNbTcB4
_chemical_formula_sum   'Ta4 Ti4 Nb4 Tc4 B16'
_cell_volume   368.63034777
_cell_formula_units_Z   4
loop_
 _symmetry_equiv_pos_site_id
 _symmetry_equiv_pos_as_xyz
  1  'x, y, z'
loop_
 _atom_site_type_symbol
 _atom_site_label
 _atom_site_symmetry_multiplicity
 _atom_site_fract_x
 _atom_site_fract_y
 _atom_site_fract_z
 _atom_site_occupancy
  B  B0  1  0.74773177  0.75260617  0.49557710  1
  B  B1  1  0.74845245  0.24766413  0.49814746  1
  B  B2  1  0.25169125  0.75213194  0.49926540  1
  B  B3  1  0.25217474  0.24689237  0.50145637  1
  B  B4  1  0.50442156  0.50103685  0.24460110  1
  B  B5  1  0.50665550  0.99725631  0.24943574  1
  B  B6  1  0.74790596  0.74266085  0.00670370  1
  B  B7  1  0.74816286  0.25667351  0.00320558  1
  B  B8  1  0.99604706  0.50102047  0.24437857  1
  B  B9  1  0.99498486  0.99968595  0.24973670  1
  B  B10  1  0.25189566  0.74465156  0.00091673  1
  B  B11  1  0.25198559  0.25905033  0.99700893  1
  B  B12  1  0.49562143  0.49491462  0.75456546  1
  B  B13  1  0.49458419  0.00401162  0.75021971  1
  B  B14  1  0.00411340  0.49495824  0.75478096  1
  B  B15  1  0.00421104  0.00322778  0.75021565  1
  Nb  Nb16  1  0.25017828  0.74830478  0.75173112  1
  Nb  Nb17  1  0.99992658  0.00024596  0.49944521  1
  Nb  Nb18  1  0.99974168  0.49930175  0.49863863  1
  Nb  Nb19  1  0.25055905  0.74920750  0.24785976  1
  Ta  Ta20  1  0.74951752  0.25090579  0.75175699  1
  Ta  Ta21  1  0.74898360  0.74858835  0.75007783  1
  Ta  Ta22  1  0.50030539  0.49913396  0.49879245  1
  Ta  Ta23  1  0.99961133  0.00195832  0.00101647  1
  Ti  Ti24  1  0.50021131  0.00007718  0.49941673  1
  Ti  Ti25  1  0.75001110  0.25094116  0.24862452  1
  Ti  Ti26  1  0.25107606  0.25069056  0.24905748  1
  Ti  Ti27  1  0.50021828  0.00155364  0.00081303  1
  Tc  Tc28  1  0.25085260  0.24962667  0.74635631  1
  Tc  Tc29  1  0.74795184  0.75278218  0.25052725  1
  Tc  Tc30  1  0.50018293  0.49892919  0.00262799  1
  Tc  Tc31  1  0.00003310  0.49931033  0.00304306  1
