# generated using pymatgen
data_TaTiNbB4W
_symmetry_space_group_name_H-M   'P 1'
_cell_length_a   6.42294110
_cell_length_b   6.42024522
_cell_length_c   9.08315443
_cell_angle_alpha   90.05857771
_cell_angle_beta   89.99393746
_cell_angle_gamma   89.99157713
_symmetry_Int_Tables_number   1
_chemical_formula_structural   TaTiNbB4W
_chemical_formula_sum   'Ta4 Ti4 Nb4 B16 W4'
_cell_volume   374.56053737
_cell_formula_units_Z   4
loop_
 _symmetry_equiv_pos_site_id
 _symmetry_equiv_pos_as_xyz
  1  'x, y, z'
loop_
 _atom_site_type_symbol
 _atom_site_label
 _atom_site_symmetry_multiplicity
 _atom_site_fract_x
 _atom_site_fract_y
 _atom_site_fract_z
 _atom_site_occupancy
  B  B0  1  0.74788174  0.75215870  0.49684706  1
  B  B1  1  0.74852857  0.24850905  0.49819486  1
  B  B2  1  0.25171245  0.75173296  0.49966154  1
  B  B3  1  0.25190486  0.24777480  0.50095924  1
  B  B4  1  0.50320461  0.49863684  0.24666700  1
  B  B5  1  0.50382682  0.99880402  0.24921504  1
  B  B6  1  0.74788143  0.74717315  0.00324163  1
  B  B7  1  0.74853939  0.25458900  0.00248566  1
  B  B8  1  0.99698038  0.49921526  0.24639932  1
  B  B9  1  0.99696516  0.00017428  0.24957154  1
  B  B10  1  0.25163911  0.74637579  0.00068987  1
  B  B11  1  0.25188978  0.25367839  0.99971846  1
  B  B12  1  0.49745232  0.49740366  0.75271876  1
  B  B13  1  0.49669486  0.00307632  0.75063597  1
  B  B14  1  0.00244319  0.49727010  0.75291370  1
  B  B15  1  0.00268236  0.00289762  0.75031939  1
  Nb  Nb16  1  0.25013517  0.74879670  0.75098615  1
  Nb  Nb17  1  0.99988588  0.00066971  0.49915138  1
  Nb  Nb18  1  0.99995536  0.49962452  0.49891191  1
  Nb  Nb19  1  0.25064875  0.74941688  0.24907687  1
  Ta  Ta20  1  0.74953688  0.25049975  0.75058418  1
  Ta  Ta21  1  0.74946067  0.74943623  0.75123368  1
  Ta  Ta22  1  0.50012625  0.49934601  0.49919403  1
  Ta  Ta23  1  0.99985233  0.00082805  0.00084759  1
  Ti  Ti24  1  0.50016800  0.00042294  0.49902258  1
  Ti  Ti25  1  0.74982073  0.25067629  0.24887654  1
  Ti  Ti26  1  0.25057915  0.25031689  0.24845524  1
  Ti  Ti27  1  0.50012260  0.00047892  0.00094239  1
  W  W28  1  0.25063758  0.25019250  0.75013415  1
  W  W29  1  0.74876280  0.75044250  0.24949169  1
  W  W30  1  0.50011735  0.49952501  0.00131120  1
  W  W31  1  0.99996349  0.49985715  0.00154137  1
