# generated using pymatgen
data_YTaTiNbB4
_symmetry_space_group_name_H-M   'P 1'
_cell_length_a   6.71699137
_cell_length_b   6.70157900
_cell_length_c   9.50740599
_cell_angle_alpha   89.97202770
_cell_angle_beta   90.14996214
_cell_angle_gamma   89.94968880
_symmetry_Int_Tables_number   1
_chemical_formula_structural   YTaTiNbB4
_chemical_formula_sum   'Y4 Ta4 Ti4 Nb4 B16'
_cell_volume   427.96895329
_cell_formula_units_Z   4
loop_
 _symmetry_equiv_pos_site_id
 _symmetry_equiv_pos_as_xyz
  1  'x, y, z'
loop_
 _atom_site_type_symbol
 _atom_site_label
 _atom_site_symmetry_multiplicity
 _atom_site_fract_x
 _atom_site_fract_y
 _atom_site_fract_z
 _atom_site_occupancy
  B  B0  1  0.75083777  0.75309068  0.50745497  1
  B  B1  1  0.74902670  0.25041027  0.49951509  1
  B  B2  1  0.25110392  0.75411432  0.49994150  1
  B  B3  1  0.24904297  0.25188662  0.49064619  1
  B  B4  1  0.48081326  0.48772597  0.26567330  1
  B  B5  1  0.48071666  0.01706588  0.24549565  1
  B  B6  1  0.75138039  0.77756513  0.98113582  1
  B  B7  1  0.74906495  0.21655521  0.99691367  1
  B  B8  1  0.01462620  0.49003058  0.26539047  1
  B  B9  1  0.01225400  0.01333924  0.24907331  1
  B  B10  1  0.25170811  0.77868840  0.00015860  1
  B  B11  1  0.25174578  0.20558621  0.02637205  1
  B  B12  1  0.51407960  0.51254925  0.73770311  1
  B  B13  1  0.51436400  0.98985152  0.74792293  1
  B  B14  1  0.99004848  0.51274422  0.73791583  1
  B  B15  1  0.99082715  0.99154630  0.74792277  1
  Nb  Nb16  1  0.25313696  0.75393917  0.74367472  1
  Nb  Nb17  1  0.99932497  0.00291761  0.49964722  1
  Nb  Nb18  1  0.99986324  0.50116251  0.50067601  1
  Nb  Nb19  1  0.24821005  0.75414067  0.25664072  1
  Ta  Ta20  1  0.75117545  0.24755264  0.74396360  1
  Ta  Ta21  1  0.75149691  0.75313587  0.74281776  1
  Ta  Ta22  1  0.50005437  0.50098930  0.50061793  1
  Ta  Ta23  1  0.99804087  0.99574663  0.99775625  1
  Ti  Ti24  1  0.50014672  0.00361352  0.49942245  1
  Ti  Ti25  1  0.74674559  0.24791692  0.25502439  1
  Ti  Ti26  1  0.24668936  0.24937523  0.25990918  1
  Ti  Ti27  1  0.50319034  0.99519140  0.99627449  1
  Y  Y28  1  0.25353151  0.24909377  0.75144593  1
  Y  Y29  1  0.74546697  0.75334219  0.24893582  1
  Y  Y30  1  0.49993680  0.49458445  0.00206575  1
  Y  Y31  1  0.00134999  0.49454834  0.00189252  1
