# generated using pymatgen
data_TaTiNbZnB4
_symmetry_space_group_name_H-M   'P 1'
_cell_length_a   6.34621460
_cell_length_b   6.45836657
_cell_length_c   9.55756410
_cell_angle_alpha   73.16713450
_cell_angle_beta   90.12600147
_cell_angle_gamma   90.10463255
_symmetry_Int_Tables_number   1
_chemical_formula_structural   TaTiNbZnB4
_chemical_formula_sum   'Ta4 Ti4 Nb4 Zn4 B16'
_cell_volume   374.94269166
_cell_formula_units_Z   4
loop_
 _symmetry_equiv_pos_site_id
 _symmetry_equiv_pos_as_xyz
  1  'x, y, z'
loop_
 _atom_site_type_symbol
 _atom_site_label
 _atom_site_symmetry_multiplicity
 _atom_site_fract_x
 _atom_site_fract_y
 _atom_site_fract_z
 _atom_site_occupancy
  B  B0  1  0.74796760  0.75014535  0.50760862  1
  B  B1  1  0.74753603  0.26600117  0.48111073  1
  B  B2  1  0.25245899  0.74986539  0.52007616  1
  B  B3  1  0.25115402  0.26432393  0.49370930  1
  B  B4  1  0.50191087  0.63737099  0.17554461  1
  B  B5  1  0.48527164  0.12338769  0.22300579  1
  B  B6  1  0.75171862  0.71158432  0.10893136  1
  B  B7  1  0.74891682  0.29345287  0.91435003  1
  B  B8  1  0.00175346  0.63390290  0.17562385  1
  B  B9  1  0.01372089  0.11647936  0.22442053  1
  B  B10  1  0.25172434  0.69543547  0.08166046  1
  B  B11  1  0.24797191  0.28420648  0.88887781  1
  B  B12  1  0.49948035  0.36540501  0.81650163  1
  B  B13  1  0.51028095  0.89981473  0.76355813  1
  B  B14  1  0.99651476  0.36781561  0.81458868  1
  B  B15  1  0.98980337  0.90573474  0.76215380  1
  Nb  Nb16  1  0.24829616  0.67470517  0.76902739  1
  Nb  Nb17  1  0.99986940  0.00662077  0.49927492  1
  Nb  Nb18  1  0.00063245  0.50534323  0.50317445  1
  Nb  Nb19  1  0.25561481  0.85821661  0.27268891  1
  Ta  Ta20  1  0.74480885  0.15699032  0.72121061  1
  Ta  Ta21  1  0.74789785  0.65877275  0.74852664  1
  Ta  Ta22  1  0.49941808  0.50555736  0.50246431  1
  Ta  Ta23  1  0.00257428  0.98599966  0.98900869  1
  Ti  Ti24  1  0.49968660  0.00678547  0.49971464  1
  Ti  Ti25  1  0.75085154  0.34396742  0.24758807  1
  Ti  Ti26  1  0.25273427  0.35488583  0.26533084  1
  Ti  Ti27  1  0.49766646  0.98776561  0.99036779  1
  Zn  Zn28  1  0.25683923  0.12729924  0.71692175  1
  Zn  Zn29  1  0.74400287  0.89366504  0.27728157  1
  Zn  Zn30  1  0.48789078  0.43655894  0.02232266  1
  Zn  Zn31  1  0.01303172  0.43194054  0.02337527  1
