# generated using pymatgen
data_ScTaTiNbB4
_symmetry_space_group_name_H-M   'P 1'
_cell_length_a   6.57852389
_cell_length_b   6.58121538
_cell_length_c   9.30801095
_cell_angle_alpha   90.16009302
_cell_angle_beta   90.08237326
_cell_angle_gamma   89.99332819
_symmetry_Int_Tables_number   1
_chemical_formula_structural   ScTaTiNbB4
_chemical_formula_sum   'Sc4 Ta4 Ti4 Nb4 B16'
_cell_volume   402.98538790
_cell_formula_units_Z   4
loop_
 _symmetry_equiv_pos_site_id
 _symmetry_equiv_pos_as_xyz
  1  'x, y, z'
loop_
 _atom_site_type_symbol
 _atom_site_label
 _atom_site_symmetry_multiplicity
 _atom_site_fract_x
 _atom_site_fract_y
 _atom_site_fract_z
 _atom_site_occupancy
  B  B0  1  0.75009503  0.75203630  0.50355813  1
  B  B1  1  0.74868100  0.24908178  0.49873235  1
  B  B2  1  0.25142848  0.75251190  0.49991124  1
  B  B3  1  0.25007828  0.24948257  0.49355617  1
  B  B4  1  0.48935280  0.49091875  0.25794631  1
  B  B5  1  0.48870473  0.00931843  0.24733435  1
  B  B6  1  0.75037949  0.76774868  0.99016605  1
  B  B7  1  0.74855894  0.23083221  0.99962941  1
  B  B8  1  0.00915950  0.49214263  0.25785548  1
  B  B9  1  0.00736987  0.00774712  0.24884941  1
  B  B10  1  0.25124506  0.76656105  0.00100585  1
  B  B11  1  0.25087102  0.22703495  0.01498741  1
  B  B12  1  0.50739955  0.50712136  0.74372973  1
  B  B13  1  0.50750740  0.99497068  0.75001274  1
  B  B14  1  0.99436880  0.50766491  0.74377072  1
  B  B15  1  0.99543859  0.99625196  0.74964507  1
  Nb  Nb16  1  0.25188655  0.75182760  0.74831118  1
  Nb  Nb17  1  0.99957564  0.00147868  0.49951447  1
  Nb  Nb18  1  0.00021040  0.49956816  0.49984769  1
  Nb  Nb19  1  0.24990588  0.75028038  0.25254793  1
  Ta  Ta20  1  0.75000161  0.25046627  0.74821312  1
  Ta  Ta21  1  0.75024454  0.75226925  0.74644221  1
  Ta  Ta22  1  0.50009748  0.49954384  0.49987390  1
  Ta  Ta23  1  0.99932900  0.99891658  0.99924549  1
  Ti  Ti24  1  0.50031816  0.00154940  0.49948655  1
  Ti  Ti25  1  0.74781112  0.24991734  0.25015121  1
  Ti  Ti26  1  0.24876936  0.24879829  0.25462285  1
  Ti  Ti27  1  0.50103836  0.99840757  0.99868058  1
  Sc  Sc28  1  0.25225033  0.25133497  0.75207669  1
  Sc  Sc29  1  0.74751073  0.74952542  0.24794100  1
  Sc  Sc30  1  0.50096286  0.49735114  0.00127549  1
  Sc  Sc31  1  0.99944948  0.49733982  0.00107922  1
