# generated using pymatgen
data_TaTiNbB4Rh
_symmetry_space_group_name_H-M   'P 1'
_cell_length_a   6.43527261
_cell_length_b   6.36223087
_cell_length_c   9.05607877
_cell_angle_alpha   87.82899580
_cell_angle_beta   89.82166733
_cell_angle_gamma   90.00587706
_symmetry_Int_Tables_number   1
_chemical_formula_structural   TaTiNbB4Rh
_chemical_formula_sum   'Ta4 Ti4 Nb4 B16 Rh4'
_cell_volume   370.51228239
_cell_formula_units_Z   4
loop_
 _symmetry_equiv_pos_site_id
 _symmetry_equiv_pos_as_xyz
  1  'x, y, z'
loop_
 _atom_site_type_symbol
 _atom_site_label
 _atom_site_symmetry_multiplicity
 _atom_site_fract_x
 _atom_site_fract_y
 _atom_site_fract_z
 _atom_site_occupancy
  B  B0  1  0.74801505  0.74815699  0.50396665  1
  B  B1  1  0.74798293  0.24406672  0.49693390  1
  B  B2  1  0.25231166  0.74923764  0.50116453  1
  B  B3  1  0.25211019  0.24488921  0.49012882  1
  B  B4  1  0.50989655  0.51280547  0.24484361  1
  B  B5  1  0.50313441  0.00935993  0.24826852  1
  B  B6  1  0.74799949  0.74823627  0.01737334  1
  B  B7  1  0.74831834  0.25693977  0.00196507  1
  B  B8  1  0.99324244  0.51323575  0.24609852  1
  B  B9  1  0.00082184  0.01048646  0.24785106  1
  B  B10  1  0.25183690  0.74420982  0.00236927  1
  B  B11  1  0.24969219  0.29608680  0.96801382  1
  B  B12  1  0.49063313  0.47755740  0.76056260  1
  B  B13  1  0.49651533  0.98875655  0.75005773  1
  B  B14  1  0.00664709  0.47793609  0.76217743  1
  B  B15  1  0.00031107  0.98913142  0.75027690  1
  Nb  Nb16  1  0.24881860  0.73433968  0.75515080  1
  Nb  Nb17  1  0.00064012  0.99720155  0.49868695  1
  Nb  Nb18  1  0.00074991  0.49547221  0.49994739  1
  Nb  Nb19  1  0.25279392  0.75860165  0.24822864  1
  Ta  Ta20  1  0.74731357  0.23822332  0.74813937  1
  Ta  Ta21  1  0.74773388  0.73652533  0.75448284  1
  Ta  Ta22  1  0.49955065  0.49546158  0.49959307  1
  Ta  Ta23  1  0.00118860  0.00745617  0.99884507  1
  Ti  Ti24  1  0.49972966  0.99683294  0.49896803  1
  Ti  Ti25  1  0.75118168  0.25637363  0.24713330  1
  Ti  Ti26  1  0.25284921  0.26104807  0.24381182  1
  Ti  Ti27  1  0.49895164  0.00649189  0.99827547  1
  Rh  Rh28  1  0.24899912  0.22484895  0.73267532  1
  Rh  Rh29  1  0.74949386  0.76870403  0.26562744  1
  Rh  Rh30  1  0.51191289  0.50294082  0.00775144  1
  Rh  Rh31  1  0.98862406  0.50838592  0.01063132  1
