# generated using pymatgen
data_TaTiNbNiB4
_symmetry_space_group_name_H-M   'P 1'
_cell_length_a   6.27937165
_cell_length_b   6.36530937
_cell_length_c   9.25446535
_cell_angle_alpha   74.65169343
_cell_angle_beta   90.13730039
_cell_angle_gamma   90.05266411
_symmetry_Int_Tables_number   1
_chemical_formula_structural   TaTiNbNiB4
_chemical_formula_sum   'Ta4 Ti4 Nb4 Ni4 B16'
_cell_volume   356.70855267
_cell_formula_units_Z   4
loop_
 _symmetry_equiv_pos_site_id
 _symmetry_equiv_pos_as_xyz
  1  'x, y, z'
loop_
 _atom_site_type_symbol
 _atom_site_label
 _atom_site_symmetry_multiplicity
 _atom_site_fract_x
 _atom_site_fract_y
 _atom_site_fract_z
 _atom_site_occupancy
  B  B0  1  0.74821567  0.75758316  0.50115915  1
  B  B1  1  0.74732805  0.26794308  0.48011584  1
  B  B2  1  0.25327968  0.75275371  0.51982928  1
  B  B3  1  0.25254923  0.25746079  0.50502404  1
  B  B4  1  0.50151237  0.62784908  0.17478057  1
  B  B5  1  0.50102791  0.11122956  0.21065580  1
  B  B6  1  0.75087503  0.69877846  0.09743833  1
  B  B7  1  0.74853744  0.30431360  0.92867186  1
  B  B8  1  0.00040002  0.62512268  0.17412032  1
  B  B9  1  0.00138282  0.10646628  0.21584587  1
  B  B10  1  0.25027804  0.67104896  0.07266631  1
  B  B11  1  0.24951097  0.29362194  0.90800743  1
  B  B12  1  0.49898336  0.37263964  0.81663843  1
  B  B13  1  0.49347759  0.92774971  0.75781903  1
  B  B14  1  0.99757152  0.37451049  0.81612161  1
  B  B15  1  0.00302484  0.92933620  0.75687740  1
  Nb  Nb16  1  0.24735952  0.67466488  0.77535352  1
  Nb  Nb17  1  0.99937015  0.00934956  0.49562648  1
  Nb  Nb18  1  0.00075151  0.50703155  0.50456300  1
  Nb  Nb19  1  0.25466944  0.84241195  0.26870363  1
  Ta  Ta20  1  0.74582497  0.17343922  0.72271084  1
  Ta  Ta21  1  0.74613007  0.67367379  0.75863402  1
  Ta  Ta22  1  0.50052436  0.50776038  0.50256403  1
  Ta  Ta23  1  0.99961825  0.98352388  0.99261475  1
  Ti  Ti24  1  0.50163803  0.00982445  0.49497911  1
  Ti  Ti25  1  0.75088204  0.34321078  0.24358032  1
  Ti  Ti26  1  0.25385139  0.33932286  0.26389155  1
  Ti  Ti27  1  0.49969042  0.98309183  0.99196996  1
  Ni  Ni28  1  0.25223904  0.15071073  0.72948729  1
  Ni  Ni29  1  0.74733110  0.87975345  0.26839187  1
  Ni  Ni30  1  0.48187952  0.42491832  0.02449512  1
  Ni  Ni31  1  0.02028562  0.41890501  0.02666327  1
