# generated using pymatgen
data_TaTiNbReB4
_symmetry_space_group_name_H-M   'P 1'
_cell_length_a   6.37488876
_cell_length_b   6.41038975
_cell_length_c   9.03440991
_cell_angle_alpha   90.13479847
_cell_angle_beta   90.00069375
_cell_angle_gamma   89.98393402
_symmetry_Int_Tables_number   1
_chemical_formula_structural   TaTiNbReB4
_chemical_formula_sum   'Ta4 Ti4 Nb4 Re4 B16'
_cell_volume   369.19483696
_cell_formula_units_Z   4
loop_
 _symmetry_equiv_pos_site_id
 _symmetry_equiv_pos_as_xyz
  1  'x, y, z'
loop_
 _atom_site_type_symbol
 _atom_site_label
 _atom_site_symmetry_multiplicity
 _atom_site_fract_x
 _atom_site_fract_y
 _atom_site_fract_z
 _atom_site_occupancy
  B  B0  1  0.74760735  0.75292474  0.49560564  1
  B  B1  1  0.74847715  0.24803248  0.49799559  1
  B  B2  1  0.25169858  0.75195932  0.49931270  1
  B  B3  1  0.25221494  0.24674706  0.50155581  1
  B  B4  1  0.50416337  0.50016968  0.24524765  1
  B  B5  1  0.50634789  0.99735223  0.24944474  1
  B  B6  1  0.74781941  0.74430101  0.00561699  1
  B  B7  1  0.74818890  0.25627771  0.00310014  1
  B  B8  1  0.99621538  0.50023168  0.24508568  1
  B  B9  1  0.99509523  0.99953760  0.24974501  1
  B  B10  1  0.25193845  0.74496760  0.00090235  1
  B  B11  1  0.25205878  0.25740436  0.99771531  1
  B  B12  1  0.49611697  0.49553368  0.75422479  1
  B  B13  1  0.49472656  0.00419062  0.75020009  1
  B  B14  1  0.00365760  0.49544288  0.75432337  1
  B  B15  1  0.00415725  0.00350638  0.75017310  1
  Nb  Nb16  1  0.25010818  0.74807113  0.75173842  1
  Nb  Nb17  1  0.99994762  0.00029901  0.49930082  1
  Nb  Nb18  1  0.99973635  0.49941565  0.49853219  1
  Nb  Nb19  1  0.25058918  0.74906263  0.24809816  1
  Ta  Ta20  1  0.74948247  0.25091234  0.75137834  1
  Ta  Ta21  1  0.74904204  0.74912828  0.74997365  1
  Ta  Ta22  1  0.50029319  0.49919686  0.49870130  1
  Ta  Ta23  1  0.99973470  0.00204275  0.00109727  1
  Ti  Ti24  1  0.50017686  0.00015589  0.49929733  1
  Ti  Ti25  1  0.75001408  0.25104676  0.24855287  1
  Ti  Ti26  1  0.25105061  0.25021096  0.24916447  1
  Ti  Ti27  1  0.50016324  0.00164448  0.00092043  1
  Re  Re28  1  0.25104801  0.24889648  0.74597157  1
  Re  Re29  1  0.74796044  0.75349988  0.25106870  1
  Re  Re30  1  0.50034317  0.49875821  0.00284378  1
  Re  Re31  1  0.99982604  0.49907962  0.00311176  1
