# generated using pymatgen
data_TaTiNbB4Pd
_symmetry_space_group_name_H-M   'P 1'
_cell_length_a   6.47697115
_cell_length_b   6.39533803
_cell_length_c   9.10321885
_cell_angle_alpha   87.39246642
_cell_angle_beta   89.91284740
_cell_angle_gamma   90.07098390
_symmetry_Int_Tables_number   1
_chemical_formula_structural   TaTiNbB4Pd
_chemical_formula_sum   'Ta4 Ti4 Nb4 B16 Pd4'
_cell_volume   376.68616783
_cell_formula_units_Z   4
loop_
 _symmetry_equiv_pos_site_id
 _symmetry_equiv_pos_as_xyz
  1  'x, y, z'
loop_
 _atom_site_type_symbol
 _atom_site_label
 _atom_site_symmetry_multiplicity
 _atom_site_fract_x
 _atom_site_fract_y
 _atom_site_fract_z
 _atom_site_occupancy
  B  B0  1  0.74799462  0.75147010  0.50652047  1
  B  B1  1  0.74791981  0.24657602  0.49589746  1
  B  B2  1  0.25240881  0.75148786  0.50176049  1
  B  B3  1  0.25188917  0.24702544  0.48956479  1
  B  B4  1  0.50666547  0.51326069  0.24556994  1
  B  B5  1  0.49983933  0.01489471  0.24885622  1
  B  B6  1  0.74861878  0.74195057  0.01957719  1
  B  B7  1  0.74801263  0.25299020  0.00048350  1
  B  B8  1  0.99694649  0.51314628  0.24563069  1
  B  B9  1  0.00336288  0.01522375  0.24865778  1
  B  B10  1  0.25157594  0.75057302  0.00170561  1
  B  B11  1  0.25095980  0.26510656  0.98146972  1
  B  B12  1  0.49426995  0.48243659  0.75530711  1
  B  B13  1  0.49974407  0.98651380  0.75083372  1
  B  B14  1  0.00215083  0.48322692  0.75552287  1
  B  B15  1  0.99720439  0.98740348  0.75102254  1
  Nb  Nb16  1  0.24843446  0.73509065  0.75358376  1
  Nb  Nb17  1  0.00055515  0.99967957  0.49957229  1
  Nb  Nb18  1  0.00014434  0.49839521  0.49845628  1
  Nb  Nb19  1  0.25312332  0.76228443  0.25123838  1
  Ta  Ta20  1  0.74717959  0.23712833  0.74608235  1
  Ta  Ta21  1  0.74744189  0.73727452  0.75522779  1
  Ta  Ta22  1  0.50007628  0.49819165  0.49856286  1
  Ta  Ta23  1  0.99906844  0.00261680  0.00002740  1
  Ti  Ti24  1  0.49972199  0.99928560  0.49970681  1
  Ti  Ti25  1  0.75154744  0.26210608  0.24586134  1
  Ti  Ti26  1  0.25235174  0.26155003  0.24421052  1
  Ti  Ti27  1  0.50044685  0.00187869  0.99962196  1
  Pd  Pd28  1  0.24941799  0.22713488  0.73898404  1
  Pd  Pd29  1  0.75058209  0.77371396  0.26241464  1
  Pd  Pd30  1  0.49963813  0.49959670  0.00394077  1
  Pd  Pd31  1  0.00070730  0.50078690  0.00412874  1
