# generated using pymatgen
data_TaTiNbB4Pt
_symmetry_space_group_name_H-M   'P 1'
_cell_length_a   6.49429315
_cell_length_b   6.38040499
_cell_length_c   9.09860144
_cell_angle_alpha   86.63118733
_cell_angle_beta   89.83812724
_cell_angle_gamma   90.02975609
_symmetry_Int_Tables_number   1
_chemical_formula_structural   TaTiNbB4Pt
_chemical_formula_sum   'Ta4 Ti4 Nb4 B16 Pt4'
_cell_volume   376.35857337
_cell_formula_units_Z   4
loop_
 _symmetry_equiv_pos_site_id
 _symmetry_equiv_pos_as_xyz
  1  'x, y, z'
loop_
 _atom_site_type_symbol
 _atom_site_label
 _atom_site_symmetry_multiplicity
 _atom_site_fract_x
 _atom_site_fract_y
 _atom_site_fract_z
 _atom_site_occupancy
  B  B0  1  0.74752497  0.75081302  0.50891446  1
  B  B1  1  0.74767998  0.24736391  0.49478914  1
  B  B2  1  0.25234992  0.75099714  0.50173120  1
  B  B3  1  0.25187680  0.24720219  0.48819997  1
  B  B4  1  0.51122760  0.52017074  0.24389187  1
  B  B5  1  0.49970471  0.01876115  0.24865368  1
  B  B6  1  0.74885981  0.73459065  0.02745594  1
  B  B7  1  0.74929913  0.25975988  0.99856360  1
  B  B8  1  0.99280428  0.52010576  0.24502364  1
  B  B9  1  0.00339097  0.01881857  0.24818365  1
  B  B10  1  0.25228033  0.75030245  0.00142140  1
  B  B11  1  0.25107272  0.26997820  0.97438742  1
  B  B12  1  0.49119067  0.47515359  0.75769998  1
  B  B13  1  0.49983161  0.98108780  0.75089224  1
  B  B14  1  0.00422233  0.47520159  0.75903717  1
  B  B15  1  0.99637515  0.98260628  0.75081295  1
  Nb  Nb16  1  0.24796079  0.73071419  0.75340517  1
  Nb  Nb17  1  0.00049168  0.99928060  0.49911592  1
  Nb  Nb18  1  0.00001520  0.49818233  0.49780487  1
  Nb  Nb19  1  0.25328529  0.76572259  0.25154781  1
  Ta  Ta20  1  0.74592338  0.23156156  0.74266196  1
  Ta  Ta21  1  0.74712977  0.73284217  0.75649782  1
  Ta  Ta22  1  0.49973917  0.49810343  0.49778135  1
  Ta  Ta23  1  0.99792046  0.00377572  0.99973709  1
  Ti  Ti24  1  0.49930808  0.99891926  0.49943007  1
  Ti  Ti25  1  0.75179674  0.26581421  0.24404635  1
  Ti  Ti26  1  0.25279977  0.26294971  0.24371627  1
  Ti  Ti27  1  0.50149926  0.00240793  0.99936935  1
  Pt  Pt28  1  0.25000263  0.21711960  0.73462031  1
  Pt  Pt29  1  0.74910444  0.78575088  0.26786385  1
  Pt  Pt30  1  0.49788824  0.49994451  0.00559234  1
  Pt  Pt31  1  0.00544414  0.50399839  0.00715119  1
