# generated using pymatgen
data_TaTiNbB4Ru
_symmetry_space_group_name_H-M   'P 1'
_cell_length_a   6.40185347
_cell_length_b   6.37730534
_cell_length_c   9.05802847
_cell_angle_alpha   87.48890697
_cell_angle_beta   89.88338560
_cell_angle_gamma   89.94945014
_symmetry_Int_Tables_number   1
_chemical_formula_structural   TaTiNbB4Ru
_chemical_formula_sum   'Ta4 Ti4 Nb4 B16 Ru4'
_cell_volume   369.45228566
_cell_formula_units_Z   4
loop_
 _symmetry_equiv_pos_site_id
 _symmetry_equiv_pos_as_xyz
  1  'x, y, z'
loop_
 _atom_site_type_symbol
 _atom_site_label
 _atom_site_symmetry_multiplicity
 _atom_site_fract_x
 _atom_site_fract_y
 _atom_site_fract_z
 _atom_site_occupancy
  B  B0  1  0.74802930  0.74236777  0.50215329  1
  B  B1  1  0.74804264  0.24008667  0.49638364  1
  B  B2  1  0.25160481  0.74311605  0.50160937  1
  B  B3  1  0.25209020  0.24002752  0.49038708  1
  B  B4  1  0.50731006  0.50809989  0.24903054  1
  B  B5  1  0.50485831  0.00536654  0.24743436  1
  B  B6  1  0.74863247  0.76328832  0.01223274  1
  B  B7  1  0.74796863  0.25895805  0.00291440  1
  B  B8  1  0.99476298  0.50802791  0.24999913  1
  B  B9  1  0.99871700  0.00709994  0.24740469  1
  B  B10  1  0.25135443  0.74069066  0.00517704  1
  B  B11  1  0.24886866  0.37394274  0.92689079  1
  B  B12  1  0.48252716  0.46280952  0.77611636  1
  B  B13  1  0.49605213  0.98635451  0.74968657  1
  B  B14  1  0.01690083  0.46136230  0.77844926  1
  B  B15  1  0.00233854  0.98645757  0.74953559  1
  Nb  Nb16  1  0.24933287  0.73230256  0.75638749  1
  Nb  Nb17  1  0.99884538  0.99116735  0.49724047  1
  Nb  Nb18  1  0.00008128  0.49128236  0.50196902  1
  Nb  Nb19  1  0.25166130  0.75457674  0.24855608  1
  Ta  Ta20  1  0.74797533  0.23306424  0.74717651  1
  Ta  Ta21  1  0.74899880  0.73272509  0.75445078  1
  Ta  Ta22  1  0.49951247  0.49139395  0.50215268  1
  Ta  Ta23  1  0.99990952  0.00819890  0.99838097  1
  Ti  Ti24  1  0.50100594  0.99072441  0.49761939  1
  Ti  Ti25  1  0.75116250  0.25486939  0.24647782  1
  Ti  Ti26  1  0.25251514  0.25823113  0.24763333  1
  Ti  Ti27  1  0.49895544  0.00783316  0.99776609  1
  Ru  Ru28  1  0.25100773  0.21454744  0.72406388  1
  Ru  Ru29  1  0.74804086  0.76431825  0.26348342  1
  Ru  Ru30  1  0.52640361  0.52303770  0.01430687  1
  Ru  Ru31  1  0.97453369  0.52367132  0.01693036  1
