# generated using pymatgen
data_TaTiNbB4Os
_symmetry_space_group_name_H-M   'P 1'
_cell_length_a   6.40286486
_cell_length_b   6.38794754
_cell_length_c   9.06130064
_cell_angle_alpha   87.71169037
_cell_angle_beta   89.89061093
_cell_angle_gamma   89.95285508
_symmetry_Int_Tables_number   1
_chemical_formula_structural   TaTiNbB4Os
_chemical_formula_sum   'Ta4 Ti4 Nb4 B16 Os4'
_cell_volume   370.32142861
_cell_formula_units_Z   4
loop_
 _symmetry_equiv_pos_site_id
 _symmetry_equiv_pos_as_xyz
  1  'x, y, z'
loop_
 _atom_site_type_symbol
 _atom_site_label
 _atom_site_symmetry_multiplicity
 _atom_site_fract_x
 _atom_site_fract_y
 _atom_site_fract_z
 _atom_site_occupancy
  B  B0  1  0.74788874  0.74399331  0.50172929  1
  B  B1  1  0.74821417  0.24138880  0.49698957  1
  B  B2  1  0.25165921  0.74399150  0.50127857  1
  B  B3  1  0.25237344  0.24111529  0.48872738  1
  B  B4  1  0.50704097  0.50700434  0.24965293  1
  B  B5  1  0.50518087  0.00471704  0.24773060  1
  B  B6  1  0.74815253  0.76840219  0.01054842  1
  B  B7  1  0.74772439  0.25691250  0.00401517  1
  B  B8  1  0.99463506  0.50691973  0.25039680  1
  B  B9  1  0.99808355  0.00625350  0.24766306  1
  B  B10  1  0.25142847  0.73962332  0.00486662  1
  B  B11  1  0.24910013  0.35656292  0.93732586  1
  B  B12  1  0.48348714  0.46503522  0.77387952  1
  B  B13  1  0.49626502  0.98791295  0.74927407  1
  B  B14  1  0.01613724  0.46399975  0.77542390  1
  B  B15  1  0.00241593  0.98779679  0.74908010  1
  Nb  Nb16  1  0.24960225  0.73313222  0.75635302  1
  Nb  Nb17  1  0.99917120  0.99243359  0.49720561  1
  Nb  Nb18  1  0.00031063  0.49237638  0.50117889  1
  Nb  Nb19  1  0.25145632  0.75328368  0.24813943  1
  Ta  Ta20  1  0.74833909  0.23550505  0.74763303  1
  Ta  Ta21  1  0.74914051  0.73593399  0.75396105  1
  Ta  Ta22  1  0.49955056  0.49235293  0.50132230  1
  Ta  Ta23  1  0.00057246  0.00773633  0.99861123  1
  Ti  Ti24  1  0.50095340  0.99209791  0.49774617  1
  Ti  Ti25  1  0.75108412  0.25429994  0.24714424  1
  Ti  Ti26  1  0.25214088  0.25755410  0.24595509  1
  Ti  Ti27  1  0.49893261  0.00747798  0.99808355  1
  Os  Os28  1  0.25075369  0.21493401  0.72354400  1
  Os  Os29  1  0.74742599  0.76712607  0.26366781  1
  Os  Os30  1  0.52909796  0.52118634  0.01454670  1
  Os  Os31  1  0.97168147  0.52094035  0.01632599  1
