# generated using pymatgen
data_TaTiNbCdB4
_symmetry_space_group_name_H-M   'P 1'
_cell_length_a   6.63219822
_cell_length_b   6.53162884
_cell_length_c   9.31489060
_cell_angle_alpha   87.35054043
_cell_angle_beta   90.15499930
_cell_angle_gamma   90.03623726
_symmetry_Int_Tables_number   1
_chemical_formula_structural   TaTiNbCdB4
_chemical_formula_sum   'Ta4 Ti4 Nb4 Cd4 B16'
_cell_volume   403.07941245
_cell_formula_units_Z   4
loop_
 _symmetry_equiv_pos_site_id
 _symmetry_equiv_pos_as_xyz
  1  'x, y, z'
loop_
 _atom_site_type_symbol
 _atom_site_label
 _atom_site_symmetry_multiplicity
 _atom_site_fract_x
 _atom_site_fract_y
 _atom_site_fract_z
 _atom_site_occupancy
  B  B0  1  0.74795216  0.75296399  0.51063742  1
  B  B1  1  0.74760316  0.25005445  0.49470805  1
  B  B2  1  0.25168636  0.75259017  0.50208477  1
  B  B3  1  0.25044136  0.25086455  0.48598664  1
  B  B4  1  0.49380714  0.50420051  0.25731524  1
  B  B5  1  0.48779966  0.02586818  0.24708297  1
  B  B6  1  0.75121522  0.75637336  0.99937300  1
  B  B7  1  0.74892829  0.23275866  0.99553547  1
  B  B8  1  0.00901312  0.50405245  0.25712501  1
  B  B9  1  0.01075275  0.02402562  0.24764046  1
  B  B10  1  0.25130877  0.76797800  0.00442382  1
  B  B11  1  0.25281466  0.22855306  0.01021653  1
  B  B12  1  0.50517084  0.49206687  0.74538229  1
  B  B13  1  0.50982834  0.97997179  0.75034694  1
  B  B14  1  0.99255515  0.49308143  0.74496737  1
  B  B15  1  0.99040212  0.98219761  0.75007169  1
  Nb  Nb16  1  0.24873695  0.73729240  0.75156596  1
  Nb  Nb17  1  0.99901378  0.00106355  0.49869173  1
  Nb  Nb18  1  0.99952382  0.50066133  0.49809181  1
  Nb  Nb19  1  0.25298682  0.76781708  0.25694370  1
  Ta  Ta20  1  0.74757037  0.23460644  0.74086485  1
  Ta  Ta21  1  0.74821785  0.73734969  0.75054522  1
  Ta  Ta22  1  0.49951930  0.50038140  0.49914963  1
  Ta  Ta23  1  0.99780119  0.99894506  0.99917774  1
  Ti  Ti24  1  0.49934064  0.00112163  0.49929456  1
  Ti  Ti25  1  0.75044291  0.26519194  0.24567163  1
  Ti  Ti26  1  0.25050814  0.26478085  0.24928361  1
  Ti  Ti27  1  0.50298972  0.99773016  0.99907828  1
  Cd  Cd28  1  0.25161875  0.23123921  0.74310933  1
  Cd  Cd29  1  0.74838949  0.77093161  0.25823070  1
  Cd  Cd30  1  0.49783620  0.49723527  0.00386032  1
  Cd  Cd31  1  0.00422495  0.49605173  0.00354324  1
