# generated using pymatgen
data_TaTiNbFeB4
_symmetry_space_group_name_H-M   'P 1'
_cell_length_a   6.23691876
_cell_length_b   6.31302471
_cell_length_c   9.16939482
_cell_angle_alpha   76.46018975
_cell_angle_beta   90.17057286
_cell_angle_gamma   90.04881667
_symmetry_Int_Tables_number   1
_chemical_formula_structural   TaTiNbFeB4
_chemical_formula_sum   'Ta4 Ti4 Nb4 Fe4 B16'
_cell_volume   350.99851510
_cell_formula_units_Z   4
loop_
 _symmetry_equiv_pos_site_id
 _symmetry_equiv_pos_as_xyz
  1  'x, y, z'
loop_
 _atom_site_type_symbol
 _atom_site_label
 _atom_site_symmetry_multiplicity
 _atom_site_fract_x
 _atom_site_fract_y
 _atom_site_fract_z
 _atom_site_occupancy
  B  B0  1  0.74769278  0.75421846  0.49788426  1
  B  B1  1  0.74711510  0.26197185  0.47754127  1
  B  B2  1  0.25243131  0.74591975  0.52203149  1
  B  B3  1  0.25214602  0.25295479  0.49861111  1
  B  B4  1  0.50229306  0.62790356  0.18587269  1
  B  B5  1  0.51460606  0.07311040  0.22981897  1
  B  B6  1  0.75008705  0.69121794  0.08182128  1
  B  B7  1  0.74939829  0.31135979  0.92542018  1
  B  B8  1  0.00006334  0.62580461  0.18742947  1
  B  B9  1  0.98737548  0.07170397  0.23174548  1
  B  B10  1  0.25047787  0.66973530  0.07182456  1
  B  B11  1  0.24946514  0.30630506  0.92815277  1
  B  B12  1  0.49480035  0.36779399  0.82137234  1
  B  B13  1  0.48678107  0.93680158  0.75992086  1
  B  B14  1  0.00355479  0.37024111  0.81952174  1
  B  B15  1  0.01120490  0.93769207  0.75861440  1
  Nb  Nb16  1  0.24878592  0.67741970  0.77225992  1
  Nb  Nb17  1  0.99986153  0.00497713  0.49553088  1
  Nb  Nb18  1  0.99944826  0.50303833  0.49897855  1
  Nb  Nb19  1  0.25312530  0.82666363  0.27576900  1
  Ta  Ta20  1  0.74752001  0.17612629  0.72144003  1
  Ta  Ta21  1  0.74749082  0.68184226  0.75625228  1
  Ta  Ta22  1  0.50040554  0.50302656  0.49873795  1
  Ta  Ta23  1  0.00244691  0.99179900  0.99799718  1
  Ti  Ti24  1  0.50013277  0.00501615  0.49552044  1
  Ti  Ti25  1  0.75126060  0.32658330  0.23753392  1
  Ti  Ti26  1  0.25256557  0.31906414  0.24149692  1
  Ti  Ti27  1  0.49811303  0.99241093  0.99734120  1
  Fe  Fe28  1  0.25229839  0.16751853  0.72889957  1
  Fe  Fe29  1  0.74735601  0.84037045  0.26686253  1
  Fe  Fe30  1  0.51869839  0.48956825  0.00908645  1
  Fe  Fe31  1  0.98099834  0.48984109  0.00871032  1
