# generated using pymatgen
data_TaTiMnNbB4
_symmetry_space_group_name_H-M   'P 1'
_cell_length_a   6.36647135
_cell_length_b   6.28786625
_cell_length_c   8.94018508
_cell_angle_alpha   88.49019176
_cell_angle_beta   89.91453002
_cell_angle_gamma   89.93358732
_symmetry_Int_Tables_number   1
_chemical_formula_structural   TaTiMnNbB4
_chemical_formula_sum   'Ta4 Ti4 Mn4 Nb4 B16'
_cell_volume   357.76432977
_cell_formula_units_Z   4
loop_
 _symmetry_equiv_pos_site_id
 _symmetry_equiv_pos_as_xyz
  1  'x, y, z'
loop_
 _atom_site_type_symbol
 _atom_site_label
 _atom_site_symmetry_multiplicity
 _atom_site_fract_x
 _atom_site_fract_y
 _atom_site_fract_z
 _atom_site_occupancy
  B  B0  1  0.74792005  0.74384558  0.49523162  1
  B  B1  1  0.74801331  0.24107280  0.49783618  1
  B  B2  1  0.25151118  0.74372244  0.50031477  1
  B  B3  1  0.25187578  0.24028623  0.49883702  1
  B  B4  1  0.51239475  0.50769863  0.24253351  1
  B  B5  1  0.51060300  0.99574418  0.24597923  1
  B  B6  1  0.74882464  0.75359332  0.01446723  1
  B  B7  1  0.74868946  0.26726499  0.00557347  1
  B  B8  1  0.99002672  0.50751697  0.24286777  1
  B  B9  1  0.99339524  0.99792329  0.24713278  1
  B  B10  1  0.24915258  0.69968572  0.00463584  1
  B  B11  1  0.24967227  0.41588636  0.92007025  1
  B  B12  1  0.47424521  0.46092544  0.78406698  1
  B  B13  1  0.49023819  0.99789695  0.75140997  1
  B  B14  1  0.02602845  0.45794338  0.78663714  1
  B  B15  1  0.00785039  0.99821878  0.75085816  1
  Nb  Nb16  1  0.24970071  0.74199786  0.75308041  1
  Nb  Nb17  1  0.99771659  0.99190069  0.49767146  1
  Nb  Nb18  1  0.99952963  0.49239055  0.50171065  1
  Nb  Nb19  1  0.25202473  0.74971498  0.24812113  1
  Ta  Ta20  1  0.74781597  0.23977700  0.75148435  1
  Ta  Ta21  1  0.74848425  0.73720269  0.75608302  1
  Ta  Ta22  1  0.50013948  0.49226914  0.50206518  1
  Ta  Ta23  1  0.99756977  0.00030834  0.99991079  1
  Ti  Ti24  1  0.50184898  0.99168133  0.49768261  1
  Ti  Ti25  1  0.75119166  0.25329847  0.24763599  1
  Ti  Ti26  1  0.25308120  0.25320189  0.24667240  1
  Ti  Ti27  1  0.50053532  0.99987616  0.99943889  1
  Mn  Mn28  1  0.25124391  0.22367520  0.72347435  1
  Mn  Mn29  1  0.74803902  0.75594622  0.25447110  1
  Mn  Mn30  1  0.53737165  0.52401297  0.01497173  1
  Mn  Mn31  1  0.96326591  0.52352148  0.01707403  1
