# generated using pymatgen
data_TaTiNbCoB4
_symmetry_space_group_name_H-M   'P 1'
_cell_length_a   6.25983967
_cell_length_b   6.30107216
_cell_length_c   9.14717206
_cell_angle_alpha   76.89320984
_cell_angle_beta   90.21445143
_cell_angle_gamma   90.05934606
_symmetry_Int_Tables_number   1
_chemical_formula_structural   TaTiNbCoB4
_chemical_formula_sum   'Ta4 Ti4 Nb4 Co4 B16'
_cell_volume   351.39673521
_cell_formula_units_Z   4
loop_
 _symmetry_equiv_pos_site_id
 _symmetry_equiv_pos_as_xyz
  1  'x, y, z'
loop_
 _atom_site_type_symbol
 _atom_site_label
 _atom_site_symmetry_multiplicity
 _atom_site_fract_x
 _atom_site_fract_y
 _atom_site_fract_z
 _atom_site_occupancy
  B  B0  1  0.74782488  0.75379931  0.49941130  1
  B  B1  1  0.74667575  0.26161894  0.47634415  1
  B  B2  1  0.25279079  0.74689779  0.52287386  1
  B  B3  1  0.25201967  0.25462883  0.49786420  1
  B  B4  1  0.50308370  0.62496731  0.18302400  1
  B  B5  1  0.51234681  0.07047158  0.23183177  1
  B  B6  1  0.75050161  0.68454102  0.07733102  1
  B  B7  1  0.74955849  0.31515172  0.92926136  1
  B  B8  1  0.99905051  0.62369740  0.18398391  1
  B  B9  1  0.99052677  0.06855918  0.23404558  1
  B  B10  1  0.25058520  0.67209525  0.07336966  1
  B  B11  1  0.24946205  0.31009577  0.92546855  1
  B  B12  1  0.49641220  0.37331579  0.81937461  1
  B  B13  1  0.48848298  0.93845716  0.75952886  1
  B  B14  1  0.00193240  0.37514333  0.81780244  1
  B  B15  1  0.00882561  0.93931023  0.75842112  1
  Nb  Nb16  1  0.24859693  0.68226713  0.76976623  1
  Nb  Nb17  1  0.99966210  0.00492210  0.49710133  1
  Nb  Nb18  1  0.99960219  0.50311244  0.50089926  1
  Nb  Nb19  1  0.25346533  0.82334324  0.27719209  1
  Ta  Ta20  1  0.74693105  0.17906852  0.72122888  1
  Ta  Ta21  1  0.74694633  0.68295907  0.76023000  1
  Ta  Ta22  1  0.50043621  0.50310227  0.50037857  1
  Ta  Ta23  1  0.00074815  0.99240157  0.99812310  1
  Ti  Ti24  1  0.50029811  0.00490351  0.49721114  1
  Ti  Ti25  1  0.75176701  0.32296911  0.23483626  1
  Ti  Ti26  1  0.25287747  0.31709918  0.24391590  1
  Ti  Ti27  1  0.49925881  0.99223241  0.99748097  1
  Co  Co28  1  0.25185272  0.17070126  0.73115703  1
  Co  Co29  1  0.74767510  0.83794473  0.26561688  1
  Co  Co30  1  0.50275982  0.48469171  0.00777569  1
  Co  Co31  1  0.99704326  0.48553112  0.00715027  1
