# generated using pymatgen
data_TaTiNbB4Ir
_symmetry_space_group_name_H-M   'P 1'
_cell_length_a   6.47048350
_cell_length_b   6.37574568
_cell_length_c   9.10407210
_cell_angle_alpha   84.57618453
_cell_angle_beta   88.21806582
_cell_angle_gamma   89.70629275
_symmetry_Int_Tables_number   1
_chemical_formula_structural   TaTiNbB4Ir
_chemical_formula_sum   'Ta4 Ti4 Nb4 B16 Ir4'
_cell_volume   373.71754207
_cell_formula_units_Z   4
loop_
 _symmetry_equiv_pos_site_id
 _symmetry_equiv_pos_as_xyz
  1  'x, y, z'
loop_
 _atom_site_type_symbol
 _atom_site_label
 _atom_site_symmetry_multiplicity
 _atom_site_fract_x
 _atom_site_fract_y
 _atom_site_fract_z
 _atom_site_occupancy
  B  B0  1  0.74894272  0.75910139  0.50883676  1
  B  B1  1  0.74919165  0.26293081  0.49794520  1
  B  B2  1  0.25219464  0.75960339  0.51954856  1
  B  B3  1  0.25474380  0.26204647  0.48403325  1
  B  B4  1  0.50117088  0.60113448  0.18178128  1
  B  B5  1  0.50910573  0.04772725  0.24936145  1
  B  B6  1  0.75063386  0.68475776  0.05941186  1
  B  B7  1  0.74392996  0.20963269  0.00462354  1
  B  B8  1  0.00730211  0.60170099  0.17949815  1
  B  B9  1  -0.00371199  0.04613351  0.25133165  1
  B  B10  1  0.24961096  0.65730104  0.06015190  1
  B  B11  1  0.25175540  0.27390431  0.95932328  1
  B  B12  1  0.48354656  0.46100207  0.75217590  1
  B  B13  1  0.49709267  0.97186245  0.75741744  1
  B  B14  1  0.00904290  0.46367444  0.74880996  1
  B  B15  1  0.99809915  0.97314588  0.75805341  1
  Nb  Nb16  1  0.24708949  0.72422743  0.76538940  1
  Nb  Nb17  1  -0.00157949  0.01379092  0.50345414  1
  Nb  Nb18  1  0.00325536  0.50906874  0.50502423  1
  Nb  Nb19  1  0.25359984  0.80765366  0.27931726  1
  Ta  Ta20  1  0.74618176  0.22453986  0.74944648  1
  Ta  Ta21  1  0.74627257  0.72816970  0.75671532  1
  Ta  Ta22  1  0.49976963  0.50940138  0.50485246  1
  Ta  Ta23  1  0.00167553  0.97539516  0.00861799  1
  Ti  Ti24  1  0.50388191  0.01208172  0.50324782  1
  Ti  Ti25  1  0.75276072  0.29261927  0.24954430  1
  Ti  Ti26  1  0.25166767  0.29182125  0.23177704  1
  Ti  Ti27  1  0.49614314  0.97103019  0.00767304  1
  Ir  Ir28  1  0.25187942  0.19500490  0.72490540  1
  Ir  Ir29  1  0.74702999  0.80664691  0.27539585  1
  Ir  Ir30  1  0.52892076  0.45304281  -0.01803566  1
  Ir  Ir31  1  0.96880071  0.44984720  0.98037132  1
