# generated using pymatgen
data_TaTiNbCuB4
_symmetry_space_group_name_H-M   'P 1'
_cell_length_a   6.28882523
_cell_length_b   6.42691864
_cell_length_c   9.43944603
_cell_angle_alpha   73.56859685
_cell_angle_beta   90.09695717
_cell_angle_gamma   90.03367532
_symmetry_Int_Tables_number   1
_chemical_formula_structural   TaTiNbCuB4
_chemical_formula_sum   'Ta4 Ti4 Nb4 Cu4 B16'
_cell_volume   365.93913246
_cell_formula_units_Z   4
loop_
 _symmetry_equiv_pos_site_id
 _symmetry_equiv_pos_as_xyz
  1  'x, y, z'
loop_
 _atom_site_type_symbol
 _atom_site_label
 _atom_site_symmetry_multiplicity
 _atom_site_fract_x
 _atom_site_fract_y
 _atom_site_fract_z
 _atom_site_occupancy
  B  B0  1  0.74817812  0.75319455  0.50518603  1
  B  B1  1  0.74745590  0.26651808  0.47885226  1
  B  B2  1  0.25299919  0.75058472  0.52061414  1
  B  B3  1  0.25211321  0.26088659  0.49803436  1
  B  B4  1  0.50053016  0.63146770  0.17386309  1
  B  B5  1  0.49220019  0.11668844  0.21699395  1
  B  B6  1  0.75076912  0.70958059  0.10981152  1
  B  B7  1  0.74852695  0.29819983  0.92012204  1
  B  B8  1  0.00149974  0.62862147  0.17322302  1
  B  B9  1  0.00919481  0.11193513  0.21962310  1
  B  B10  1  0.25084934  0.68471979  0.07744324  1
  B  B11  1  0.24877059  0.28595917  0.89431167  1
  B  B12  1  0.49982921  0.36919958  0.81934635  1
  B  B13  1  0.50366457  0.91377820  0.76203817  1
  B  B14  1  0.99654751  0.37144202  0.81863276  1
  B  B15  1  0.99535096  0.91728405  0.76027805  1
  Nb  Nb16  1  0.24827436  0.67520692  0.77218651  1
  Nb  Nb17  1  0.99977956  0.00730815  0.49779078  1
  Nb  Nb18  1  0.00084701  0.50588167  0.50254274  1
  Nb  Nb19  1  0.25403911  0.84877323  0.27117825  1
  Ta  Ta20  1  0.74570875  0.16732270  0.72026070  1
  Ta  Ta21  1  0.74677771  0.66378848  0.75297055  1
  Ta  Ta22  1  0.50013085  0.50645177  0.50098980  1
  Ta  Ta23  1  0.00182756  0.98689678  0.99037517  1
  Ti  Ti24  1  0.50085603  0.00772383  0.49798486  1
  Ti  Ti25  1  0.75040894  0.34546359  0.24373193  1
  Ti  Ti26  1  0.25301826  0.34743942  0.26401753  1
  Ti  Ti27  1  0.49814376  0.98786622  0.99102300  1
  Cu  Cu28  1  0.25341704  0.13725986  0.71970079  1
  Cu  Cu29  1  0.74765937  0.89174848  0.27618651  1
  Cu  Cu30  1  0.47985963  0.42743438  0.02464642  1
  Cu  Cu31  1  0.02077249  0.42337462  0.02604074  1
