# generated using pymatgen
data_ScFeNi2
_symmetry_space_group_name_H-M   'P 1'
_cell_length_a   4.76073324
_cell_length_b   5.68558095
_cell_length_c   8.49660932
_cell_angle_alpha   101.48388294
_cell_angle_beta   86.92258605
_cell_angle_gamma   104.72968418
_symmetry_Int_Tables_number   1
_chemical_formula_structural   ScFeNi2
_chemical_formula_sum   'Sc4 Fe4 Ni8'
_cell_volume   217.97025729
_cell_formula_units_Z   4
loop_
 _symmetry_equiv_pos_site_id
 _symmetry_equiv_pos_as_xyz
  1  'x, y, z'
loop_
 _atom_site_type_symbol
 _atom_site_label
 _atom_site_symmetry_multiplicity
 _atom_site_fract_x
 _atom_site_fract_y
 _atom_site_fract_z
 _atom_site_occupancy
  Sc  Sc0  1  0.64021957  0.46013658  0.48703438  1
  Sc  Sc1  1  0.18336112  0.65307819  0.73010615  1
  Sc  Sc2  1  0.59820576  0.91470001  0.38247127  1
  Sc  Sc3  1  0.79163654  0.04522274  0.72878506  1
  Fe  Fe4  1  0.22243976  0.05357960  0.21894827  1
  Fe  Fe5  1  0.07705295  0.80221253  0.43941734  1
  Fe  Fe6  1  0.44821028  0.78437482  0.04555762  1
  Fe  Fe7  1  0.85570723  0.62717564  0.15326252  1
  Ni  Ni8  1  0.97400652  0.92391673  0.97291757  1
  Ni  Ni9  1  0.32092156  0.16091993  0.68485150  1
  Ni  Ni10  1  0.08443224  0.37641375  0.95310246  1
  Ni  Ni11  1  0.48760773  0.19129955  0.97517459  1
  Ni  Ni12  1  0.29295786  0.49094310  0.23242387  1
  Ni  Ni13  1  0.78782989  0.21580962  0.19793464  1
  Ni  Ni14  1  0.07820776  0.26829163  0.46456869  1
  Ni  Ni15  1  0.65720324  0.53192559  0.83344409  1
