# generated using pymatgen
data_TaTiNbB4Au
_symmetry_space_group_name_H-M   'P 1'
_cell_length_a   6.56658825
_cell_length_b   6.42965923
_cell_length_c   9.17766553
_cell_angle_alpha   86.18625308
_cell_angle_beta   89.91849978
_cell_angle_gamma   90.06868392
_symmetry_Int_Tables_number   1
_chemical_formula_structural   TaTiNbB4Au
_chemical_formula_sum   'Ta4 Ti4 Nb4 B16 Au4'
_cell_volume   386.63072933
_cell_formula_units_Z   4
loop_
 _symmetry_equiv_pos_site_id
 _symmetry_equiv_pos_as_xyz
  1  'x, y, z'
loop_
 _atom_site_type_symbol
 _atom_site_label
 _atom_site_symmetry_multiplicity
 _atom_site_fract_x
 _atom_site_fract_y
 _atom_site_fract_z
 _atom_site_occupancy
  B  B0  1  0.74776012  0.75046131  0.51065276  1
  B  B1  1  0.74773466  0.24843766  0.49254039  1
  B  B2  1  0.25237047  0.75080186  0.50403234  1
  B  B3  1  0.25162182  0.24844365  0.48707334  1
  B  B4  1  0.50619550  0.51688810  0.24779792  1
  B  B5  1  0.49704203  0.02505909  0.24818925  1
  B  B6  1  0.74943759  0.74032786  0.01932290  1
  B  B7  1  0.74851227  0.25180665  0.99447249  1
  B  B8  1  0.99951850  0.51730606  0.24763310  1
  B  B9  1  0.00663345  0.02417194  0.24784676  1
  B  B10  1  0.25127991  0.75454474  0.00512020  1
  B  B11  1  0.25070921  0.26092939  0.98384699  1
  B  B12  1  0.49653296  0.47706290  0.75556111  1
  B  B13  1  0.50282478  0.97759327  0.75067660  1
  B  B14  1  0.99802249  0.47701995  0.75554277  1
  B  B15  1  0.99341663  0.97915365  0.75071852  1
  Nb  Nb16  1  0.24744749  0.72924908  0.75435743  1
  Nb  Nb17  1  0.00019046  0.99930087  0.49917850  1
  Nb  Nb18  1  0.99963963  0.49898781  0.49728526  1
  Nb  Nb19  1  0.25542695  0.77246829  0.25790427  1
  Ta  Ta20  1  0.74572011  0.22697001  0.73692477  1
  Ta  Ta21  1  0.74659716  0.73221884  0.75624314  1
  Ta  Ta22  1  0.50010288  0.49860592  0.49810394  1
  Ta  Ta23  1  0.99870066  0.00291652  0.99957294  1
  Ti  Ti24  1  0.49955102  0.99901269  0.49944901  1
  Ti  Ti25  1  0.75213125  0.26894604  0.24386666  1
  Ti  Ti26  1  0.25287374  0.26606076  0.24430377  1
  Ti  Ti27  1  0.50120453  0.00251365  0.99939728  1
  Au  Au28  1  0.24987710  0.22202117  0.73773811  1
  Au  Au29  1  0.75057594  0.78038774  0.26414476  1
  Au  Au30  1  0.49851148  0.50002149  0.00534497  1
  Au  Au31  1  0.00183720  0.50031102  0.00515777  1
