# generated using pymatgen
data_LuTaTiNbB4
_symmetry_space_group_name_H-M   'P 1'
_cell_length_a   6.66177862
_cell_length_b   6.65656302
_cell_length_c   9.42817483
_cell_angle_alpha   90.08879894
_cell_angle_beta   90.10395667
_cell_angle_gamma   89.97410890
_symmetry_Int_Tables_number   1
_chemical_formula_structural   LuTaTiNbB4
_chemical_formula_sum   'Lu4 Ta4 Ti4 Nb4 B16'
_cell_volume   418.08693023
_cell_formula_units_Z   4
loop_
 _symmetry_equiv_pos_site_id
 _symmetry_equiv_pos_as_xyz
  1  'x, y, z'
loop_
 _atom_site_type_symbol
 _atom_site_label
 _atom_site_symmetry_multiplicity
 _atom_site_fract_x
 _atom_site_fract_y
 _atom_site_fract_z
 _atom_site_occupancy
  B  B0  1  0.75054777  0.75236932  0.50631673  1
  B  B1  1  0.74888564  0.24960178  0.49901820  1
  B  B2  1  0.25124884  0.75307457  0.50007400  1
  B  B3  1  0.24950884  0.25044075  0.49131053  1
  B  B4  1  0.48460094  0.48835320  0.26274321  1
  B  B5  1  0.48383085  0.01367100  0.24691295  1
  B  B6  1  0.75079802  0.77438391  0.98493029  1
  B  B7  1  0.74868182  0.22218580  0.99818285  1
  B  B8  1  0.01262133  0.49028473  0.26255585  1
  B  B9  1  0.01092345  0.01113407  0.24891994  1
  B  B10  1  0.25147780  0.77423732  0.00098575  1
  B  B11  1  0.25090755  0.21640560  0.02047404  1
  B  B12  1  0.51161115  0.51044126  0.73991321  1
  B  B13  1  0.51172527  0.99160761  0.74905315  1
  B  B14  1  0.99132605  0.51079354  0.73999555  1
  B  B15  1  0.99232370  0.99309586  0.74873871  1
  Nb  Nb16  1  0.25251889  0.75286244  0.74602369  1
  Nb  Nb17  1  0.99947466  0.00201117  0.49958920  1
  Nb  Nb18  1  0.00009023  0.50009757  0.50024668  1
  Nb  Nb19  1  0.24913728  0.75211391  0.25500303  1
  Ta  Ta20  1  0.75056840  0.24897907  0.74582344  1
  Ta  Ta21  1  0.75097617  0.75287962  0.74432876  1
  Ta  Ta22  1  0.50012735  0.49994533  0.50023967  1
  Ta  Ta23  1  0.99898730  0.99765275  0.99850607  1
  Ti  Ti24  1  0.50028154  0.00234338  0.49952434  1
  Ti  Ti25  1  0.74734598  0.24884114  0.25231678  1
  Ti  Ti26  1  0.24777263  0.24874182  0.25715612  1
  Ti  Ti27  1  0.50158599  0.99722788  0.99778938  1
  Lu  Lu28  1  0.25291890  0.24999846  0.75140926  1
  Lu  Lu29  1  0.74649682  0.75170456  0.24863109  1
  Lu  Lu30  1  0.50052572  0.49624852  0.00174946  1
  Lu  Lu31  1  0.00017311  0.49627204  0.00153808  1
