# generated using pymatgen
data_TaTiNbCrB4
_symmetry_space_group_name_H-M   'P 1'
_cell_length_a   6.32838152
_cell_length_b   6.33765873
_cell_length_c   8.95692040
_cell_angle_alpha   89.90784721
_cell_angle_beta   89.98498795
_cell_angle_gamma   90.00653124
_symmetry_Int_Tables_number   1
_chemical_formula_structural   TaTiNbCrB4
_chemical_formula_sum   'Ta4 Ti4 Nb4 Cr4 B16'
_cell_volume   359.23582355
_cell_formula_units_Z   4
loop_
 _symmetry_equiv_pos_site_id
 _symmetry_equiv_pos_as_xyz
  1  'x, y, z'
loop_
 _atom_site_type_symbol
 _atom_site_label
 _atom_site_symmetry_multiplicity
 _atom_site_fract_x
 _atom_site_fract_y
 _atom_site_fract_z
 _atom_site_occupancy
  B  B0  1  0.74774721  0.75213541  0.49231931  1
  B  B1  1  0.74822396  0.24782628  0.49812734  1
  B  B2  1  0.25184606  0.75180891  0.49958865  1
  B  B3  1  0.25216837  0.24729441  0.50527472  1
  B  B4  1  0.50958820  0.50522736  0.23911375  1
  B  B5  1  0.51062320  0.99293980  0.24813826  1
  B  B6  1  0.74801808  0.73517331  0.01080806  1
  B  B7  1  0.74855020  0.26699467  0.00310375  1
  B  B8  1  0.99125833  0.50544051  0.23881069  1
  B  B9  1  0.99130748  0.99522624  0.24889848  1
  B  B10  1  0.25125934  0.73484530  0.00084833  1
  B  B11  1  0.25195730  0.26686226  0.99277769  1
  B  B12  1  0.49120545  0.49070813  0.75952481  1
  B  B13  1  0.49064627  0.00792552  0.75172832  1
  B  B14  1  0.00815770  0.49091067  0.75966715  1
  B  B15  1  0.00803457  0.00747450  0.75120959  1
  Nb  Nb16  1  0.25002751  0.74678536  0.75259462  1
  Nb  Nb17  1  0.99992198  0.00047847  0.49931615  1
  Nb  Nb18  1  0.99986592  0.49936965  0.49871323  1
  Nb  Nb19  1  0.25092546  0.74882298  0.24721061  1
  Ta  Ta20  1  0.74913389  0.25064622  0.75221023  1
  Ta  Ta21  1  0.74903502  0.74702480  0.75398607  1
  Ta  Ta22  1  0.50018655  0.49912691  0.49892408  1
  Ta  Ta23  1  0.99979717  0.00184569  0.00100159  1
  Ti  Ti24  1  0.50018737  0.00022734  0.49922902  1
  Ti  Ti25  1  0.74997540  0.25198519  0.24772306  1
  Ti  Ti26  1  0.25129533  0.25204455  0.24596142  1
  Ti  Ti27  1  0.50010477  0.00114856  0.00093765  1
  Cr  Cr28  1  0.25025564  0.25118903  0.75068126  1
  Cr  Cr29  1  0.74868024  0.75010332  0.24862644  1
  Cr  Cr30  1  0.50052865  0.50001650  0.00128991  1
  Cr  Cr31  1  0.99948740  0.50039215  0.00165579  1
