# generated using pymatgen
data_TaTiNbB4Mo
_symmetry_space_group_name_H-M   'P 1'
_cell_length_a   6.42114737
_cell_length_b   6.42251956
_cell_length_c   9.08419198
_cell_angle_alpha   90.08337216
_cell_angle_beta   89.99071984
_cell_angle_gamma   89.98377247
_symmetry_Int_Tables_number   1
_chemical_formula_structural   TaTiNbB4Mo
_chemical_formula_sum   'Ta4 Ti4 Nb4 B16 Mo4'
_cell_volume   374.63115698
_cell_formula_units_Z   4
loop_
 _symmetry_equiv_pos_site_id
 _symmetry_equiv_pos_as_xyz
  1  'x, y, z'
loop_
 _atom_site_type_symbol
 _atom_site_label
 _atom_site_symmetry_multiplicity
 _atom_site_fract_x
 _atom_site_fract_y
 _atom_site_fract_z
 _atom_site_occupancy
  B  B0  1  0.74791490  0.75211580  0.49682763  1
  B  B1  1  0.74860654  0.24846239  0.49834316  1
  B  B2  1  0.25161203  0.75179286  0.49973354  1
  B  B3  1  0.25190875  0.24777297  0.50084702  1
  B  B4  1  0.50328434  0.49898990  0.24630893  1
  B  B5  1  0.50391839  0.99854121  0.24909897  1
  B  B6  1  0.74785900  0.74675382  0.00368978  1
  B  B7  1  0.74857275  0.25491937  0.00248124  1
  B  B8  1  0.99691222  0.49951289  0.24603822  1
  B  B9  1  0.99695881  0.00008839  0.24948043  1
  B  B10  1  0.25158761  0.74609426  0.00073533  1
  B  B11  1  0.25194538  0.25411208  0.99959929  1
  B  B12  1  0.49725690  0.49714440  0.75286595  1
  B  B13  1  0.49653088  0.00318288  0.75069234  1
  B  B14  1  0.00264777  0.49709934  0.75303131  1
  B  B15  1  0.00280782  0.00289084  0.75039107  1
  Nb  Nb16  1  0.25013305  0.74874710  0.75092035  1
  Nb  Nb17  1  0.99988249  0.00071093  0.49921794  1
  Nb  Nb18  1  0.99997230  0.49960016  0.49898464  1
  Nb  Nb19  1  0.25055515  0.74935851  0.24912289  1
  Ta  Ta20  1  0.74958442  0.25049056  0.75055190  1
  Ta  Ta21  1  0.74949446  0.74928848  0.75126730  1
  Ta  Ta22  1  0.50011233  0.49933891  0.49922951  1
  Ta  Ta23  1  0.99983738  0.00081793  0.00079025  1
  Ti  Ti24  1  0.50020821  0.00049930  0.49912136  1
  Ti  Ti25  1  0.74983735  0.25057582  0.24904602  1
  Ti  Ti26  1  0.25056678  0.25031286  0.24844601  1
  Ti  Ti27  1  0.50014886  0.00045304  0.00083189  1
  Mo  Mo28  1  0.25058282  0.25053875  0.75039791  1
  Mo  Mo29  1  0.74869359  0.75019063  0.24926203  1
  Mo  Mo30  1  0.50017924  0.49962902  0.00120720  1
  Mo  Mo31  1  0.99988747  0.49997459  0.00143860  1
