# generated using pymatgen
data_TaTiNbAgB4
_symmetry_space_group_name_H-M   'P 1'
_cell_length_a   6.54976778
_cell_length_b   6.45806225
_cell_length_c   9.18807096
_cell_angle_alpha   87.12936412
_cell_angle_beta   89.95825347
_cell_angle_gamma   90.08127585
_symmetry_Int_Tables_number   1
_chemical_formula_structural   TaTiNbAgB4
_chemical_formula_sum   'Ta4 Ti4 Nb4 Ag4 B16'
_cell_volume   388.15624606
_cell_formula_units_Z   4
loop_
 _symmetry_equiv_pos_site_id
 _symmetry_equiv_pos_as_xyz
  1  'x, y, z'
loop_
 _atom_site_type_symbol
 _atom_site_label
 _atom_site_symmetry_multiplicity
 _atom_site_fract_x
 _atom_site_fract_y
 _atom_site_fract_z
 _atom_site_occupancy
  B  B0  1  0.74805950  0.75124123  0.50898142  1
  B  B1  1  0.74772570  0.24774891  0.49433139  1
  B  B2  1  0.25222913  0.75137899  0.50274302  1
  B  B3  1  0.25159402  0.24798714  0.48790456  1
  B  B4  1  0.50188559  0.50864876  0.25062052  1
  B  B5  1  0.49525933  0.02043820  0.24840713  1
  B  B6  1  0.74936798  0.74846964  0.01208862  1
  B  B7  1  0.74849115  0.24549678  0.99661411  1
  B  B8  1  0.00266255  0.50809782  0.25076568  1
  B  B9  1  0.00710264  0.02000836  0.24823828  1
  B  B10  1  0.25137918  0.75838073  0.00392817  1
  B  B11  1  0.25099263  0.25175057  0.99150394  1
  B  B12  1  0.49905599  0.48584025  0.75214412  1
  B  B13  1  0.50382992  0.98325272  0.75051959  1
  B  B14  1  0.99670073  0.48694560  0.75193302  1
  B  B15  1  0.99372005  0.98454126  0.75054149  1
  Nb  Nb16  1  0.24819578  0.73542691  0.75289705  1
  Nb  Nb17  1  0.99996739  0.99952858  0.49930742  1
  Nb  Nb18  1  0.99963208  0.49914066  0.49822454  1
  Nb  Nb19  1  0.25390180  0.76603877  0.25526617  1
  Ta  Ta20  1  0.74677146  0.23392670  0.74120186  1
  Ta  Ta21  1  0.74722440  0.73685959  0.75493811  1
  Ta  Ta22  1  0.50016331  0.49890106  0.49878395  1
  Ta  Ta23  1  0.99893781  0.00186380  0.99934135  1
  Ti  Ti24  1  0.49979397  0.99922569  0.49949847  1
  Ti  Ti25  1  0.75140286  0.26352385  0.24562581  1
  Ti  Ti26  1  0.25217362  0.26258075  0.24535171  1
  Ti  Ti27  1  0.50095301  0.00157785  0.99923105  1
  Ag  Ag28  1  0.24939142  0.23094157  0.74045025  1
  Ag  Ag29  1  0.75103635  0.77057736  0.26031856  1
  Ag  Ag30  1  0.49859753  0.49974146  0.00417783  1
  Ag  Ag31  1  0.00180113  0.49991843  0.00412082  1
