# generated using pymatgen
data_ZrTaTiNbB4
_symmetry_space_group_name_H-M   'P 1'
_cell_length_a   6.59036228
_cell_length_b   6.58285830
_cell_length_c   9.32060311
_cell_angle_alpha   89.98738281
_cell_angle_beta   90.01200373
_cell_angle_gamma   90.00363487
_symmetry_Int_Tables_number   1
_chemical_formula_structural   ZrTaTiNbB4
_chemical_formula_sum   'Zr4 Ta4 Ti4 Nb4 B16'
_cell_volume   404.35962975
_cell_formula_units_Z   4
loop_
 _symmetry_equiv_pos_site_id
 _symmetry_equiv_pos_as_xyz
  1  'x, y, z'
loop_
 _atom_site_type_symbol
 _atom_site_label
 _atom_site_symmetry_multiplicity
 _atom_site_fract_x
 _atom_site_fract_y
 _atom_site_fract_z
 _atom_site_occupancy
  B  B0  1  0.74958118  0.75106281  0.50426321  1
  B  B1  1  0.74893105  0.24897963  0.49864862  1
  B  B2  1  0.25107531  0.75167368  0.49982261  1
  B  B3  1  0.25054944  0.24959609  0.49363841  1
  B  B4  1  0.49345446  0.49378731  0.25611891  1
  B  B5  1  0.49267392  0.00729575  0.25035893  1
  B  B6  1  0.74985291  0.76211630  0.99467318  1
  B  B7  1  0.74900471  0.23694429  0.00058653  1
  B  B8  1  0.00599088  0.49491726  0.25624864  1
  B  B9  1  0.00560765  0.00693692  0.25007496  1
  B  B10  1  0.25082202  0.76181709  0.00075374  1
  B  B11  1  0.25040487  0.23595918  0.00782944  1
  B  B12  1  0.50535798  0.50445675  0.74465349  1
  B  B13  1  0.50554754  0.99486203  0.74858976  1
  B  B14  1  0.99547379  0.50475451  0.74446899  1
  B  B15  1  0.99577952  0.99554636  0.74916321  1
  Nb  Nb16  1  0.25118480  0.75160335  0.74779322  1
  Nb  Nb17  1  0.99983519  0.00095007  0.49958617  1
  Nb  Nb18  1  0.99995382  0.49950727  0.49972930  1
  Nb  Nb19  1  0.25042042  0.75291426  0.25235847  1
  Ta  Ta20  1  0.74960680  0.24762673  0.74793763  1
  Ta  Ta21  1  0.74981502  0.75143670  0.74817900  1
  Ta  Ta22  1  0.50022046  0.49944384  0.49979966  1
  Ta  Ta23  1  0.99983253  -0.00010920  -0.00000381  1
  Ti  Ti24  1  0.50016519  0.00076927  0.49957049  1
  Ti  Ti25  1  0.74874537  0.24859770  0.25173866  1
  Ti  Ti26  1  0.24984217  0.24905421  0.25199178  1
  Ti  Ti27  1  0.50019946  0.99968353  0.99994038  1
  Zr  Zr28  1  0.25123951  0.24802104  0.74854951  1
  Zr  Zr29  1  0.74872230  0.75274376  0.25148354  1
  Zr  Zr30  1  0.50014994  0.49849131  0.00081406  1
  Zr  Zr31  1  0.99995976  0.49856020  0.00063926  1
