# generated using pymatgen
data_TaTiNbCdB4
_symmetry_space_group_name_H-M   'P 1'
_cell_length_a   6.79865022
_cell_length_b   6.41561988
_cell_length_c   9.37845908
_cell_angle_alpha   82.68693645
_cell_angle_beta   90.36503710
_cell_angle_gamma   90.13885231
_symmetry_Int_Tables_number   1
_chemical_formula_structural   TaTiNbCdB4
_chemical_formula_sum   'Ta4 Ti4 Nb4 Cd4 B16'
_cell_volume   405.72912363
_cell_formula_units_Z   4
loop_
 _symmetry_equiv_pos_site_id
 _symmetry_equiv_pos_as_xyz
  1  'x, y, z'
loop_
 _atom_site_type_symbol
 _atom_site_label
 _atom_site_symmetry_multiplicity
 _atom_site_fract_x
 _atom_site_fract_y
 _atom_site_fract_z
 _atom_site_occupancy
  B  B0  1  0.74974433  0.77392171  0.51378774  1
  B  B1  1  0.74873733  0.27743143  0.49529809  1
  B  B2  1  0.25166336  0.77791659  0.50935423  1
  B  B3  1  0.25172340  0.27780631  0.47977918  1
  B  B4  1  0.49437341  0.61433500  0.17626968  1
  B  B5  1  0.49336578  0.12262277  0.17161416  1
  B  B6  1  0.75478131  0.65241932  0.08830882  1
  B  B7  1  0.75202306  0.11785649  0.08725893  1
  B  B8  1  0.00608523  0.61234017  0.17592211  1
  B  B9  1  0.00539453  0.12140658  0.17935873  1
  B  B10  1  0.24885884  0.65006452  0.07804121  1
  B  B11  1  0.24752571  0.10916867  0.09334764  1
  B  B12  1  0.50866843  0.47778733  0.73844048  1
  B  B13  1  0.51152071  0.96164926  0.75356974  1
  B  B14  1  -0.00947047  0.47867731  0.73770028  1
  B  B15  1  0.99104282  0.96509729  0.75123730  1
  Nb  Nb16  1  0.24927435  0.72309727  0.74653673  1
  Nb  Nb17  1  0.00220720  0.02958296  0.50195731  1
  Nb  Nb18  1  0.00144610  0.52823915  0.49966447  1
  Nb  Nb19  1  0.25510571  0.84130302  0.27180925  1
  Ta  Ta20  1  0.74713452  0.21982799  0.73844154  1
  Ta  Ta21  1  0.74844340  0.72180375  0.74452532  1
  Ta  Ta22  1  0.49838444  0.52775901  0.49890836  1
  Ta  Ta23  1  -0.00173756  0.90699503  -0.00706678  1
  Ti  Ti24  1  0.49912913  0.02865036  0.50418152  1
  Ti  Ti25  1  0.74731174  0.34686025  0.25294562  1
  Ti  Ti26  1  0.25329348  0.35206499  0.24948410  1
  Ti  Ti27  1  0.50073570  0.90678395  -0.00741188  1
  Cd  Cd28  1  0.25319493  0.21393333  0.73977829  1
  Cd  Cd29  1  0.74070108  0.84760990  0.28371843  1
  Cd  Cd30  1  0.49750638  0.41008173  -0.02325223  1
  Cd  Cd31  1  0.00183160  0.40490662  -0.02350840  1
