# generated using pymatgen
data_HfTaTiNbB4
_symmetry_space_group_name_H-M   'P 1'
_cell_length_a   6.56589661
_cell_length_b   6.56019433
_cell_length_c   9.28678275
_cell_angle_alpha   90.01142421
_cell_angle_beta   90.01370979
_cell_angle_gamma   90.01487489
_symmetry_Int_Tables_number   1
_chemical_formula_structural   HfTaTiNbB4
_chemical_formula_sum   'Hf4 Ta4 Ti4 Nb4 B16'
_cell_volume   400.01473995
_cell_formula_units_Z   4
loop_
 _symmetry_equiv_pos_site_id
 _symmetry_equiv_pos_as_xyz
  1  'x, y, z'
loop_
 _atom_site_type_symbol
 _atom_site_label
 _atom_site_symmetry_multiplicity
 _atom_site_fract_x
 _atom_site_fract_y
 _atom_site_fract_z
 _atom_site_occupancy
  B  B0  1  0.74938231  0.75116671  0.50355420  1
  B  B1  1  0.74875778  0.24875815  0.49853334  1
  B  B2  1  0.25122517  0.75172358  0.49972410  1
  B  B3  1  0.25068909  0.24929729  0.49430870  1
  B  B4  1  0.49452133  0.49414671  0.25510958  1
  B  B5  1  0.49381523  0.00639957  0.25033507  1
  B  B6  1  0.74977099  0.76042354  0.99574524  1
  B  B7  1  0.74890252  0.23893057  0.00092312  1
  B  B8  1  0.00518102  0.49521635  0.25523441  1
  B  B9  1  0.00485098  0.00616300  0.25010655  1
  B  B10  1  0.25094395  0.76031339  0.00073615  1
  B  B11  1  0.25049367  0.23822083  0.00669336  1
  B  B12  1  0.50432092  0.50369202  0.74552104  1
  B  B13  1  0.50452655  0.99579069  0.74883074  1
  B  B14  1  0.99620332  0.50396386  0.74531584  1
  B  B15  1  0.99646925  0.99642375  0.74930981  1
  Nb  Nb16  1  0.25103826  0.75136543  0.74840594  1
  Nb  Nb17  1  0.99982283  0.00079524  0.49961108  1
  Nb  Nb18  1  -0.00001993  0.49936496  0.49957217  1
  Nb  Nb19  1  0.25062667  0.75209368  0.25165158  1
  Ta  Ta20  1  0.74940794  0.24824777  0.74857356  1
  Ta  Ta21  1  0.74961656  0.75122624  0.74886996  1
  Ta  Ta22  1  0.50015708  0.49935701  0.49969089  1
  Ta  Ta23  1  0.99987525  0.00023325  0.00013511  1
  Ti  Ti24  1  0.50015406  0.00065123  0.49964573  1
  Ti  Ti25  1  0.74890914  0.24887751  0.25111119  1
  Ti  Ti26  1  0.25006114  0.24918564  0.25124599  1
  Ti  Ti27  1  0.50020223  -0.00000128  0.00003609  1
  Hf  Hf28  1  0.25109808  0.24860748  0.74918194  1
  Hf  Hf29  1  0.74888137  0.75190873  0.25084187  1
  Hf  Hf30  1  0.50015846  0.49870311  0.00081310  1
  Hf  Hf31  1  0.99995681  0.49875397  0.00063259  1
