# generated using pymatgen
data_TaTiNbB4Au
_symmetry_space_group_name_H-M   'P 1'
_cell_length_a   6.57022874
_cell_length_b   6.43634253
_cell_length_c   9.23532751
_cell_angle_alpha   85.60355004
_cell_angle_beta   90.09938178
_cell_angle_gamma   90.11681022
_symmetry_Int_Tables_number   1
_chemical_formula_structural   TaTiNbB4Au
_chemical_formula_sum   'Ta4 Ti4 Nb4 B16 Au4'
_cell_volume   389.39529421
_cell_formula_units_Z   4
loop_
 _symmetry_equiv_pos_site_id
 _symmetry_equiv_pos_as_xyz
  1  'x, y, z'
loop_
 _atom_site_type_symbol
 _atom_site_label
 _atom_site_symmetry_multiplicity
 _atom_site_fract_x
 _atom_site_fract_y
 _atom_site_fract_z
 _atom_site_occupancy
  B  B0  1  0.74788842  0.74997968  0.51114215  1
  B  B1  1  0.74773630  0.24870611  0.49169022  1
  B  B2  1  0.25236265  0.75023630  0.50475883  1
  B  B3  1  0.25155556  0.24867036  0.48696229  1
  B  B4  1  0.50525015  0.51869097  0.24775702  1
  B  B5  1  0.49670692  0.02608969  0.24791174  1
  B  B6  1  0.74980778  0.73984163  0.02024619  1
  B  B7  1  0.74829799  0.25323452  0.99200763  1
  B  B8  1  0.99910217  0.51843922  0.24766373  1
  B  B9  1  0.00591058  0.02572726  0.24747438  1
  B  B10  1  0.25127659  0.75474036  0.00611677  1
  B  B11  1  0.25061665  0.26234882  0.98274263  1
  B  B12  1  0.49788624  0.47428514  0.75674999  1
  B  B13  1  0.50294913  0.97583471  0.75060134  1
  B  B14  1  0.99805768  0.47467399  0.75664760  1
  B  B15  1  0.99424459  0.97728009  0.75077689  1
  Nb  Nb16  1  0.24807874  0.72759377  0.75526031  1
  Nb  Nb17  1  0.00018686  0.99915698  0.49909470  1
  Nb  Nb18  1  0.99979251  0.49885007  0.49734081  1
  Nb  Nb19  1  0.25415051  0.77440950  0.25911587  1
  Ta  Ta20  1  0.74660328  0.22428873  0.73504905  1
  Ta  Ta21  1  0.74718570  0.73013198  0.75632263  1
  Ta  Ta22  1  0.49999408  0.49859576  0.49812081  1
  Ta  Ta23  1  0.99869939  0.00363490  0.99924939  1
  Ti  Ti24  1  0.49956558  0.99882297  0.49925581  1
  Ti  Ti25  1  0.75149100  0.27028475  0.24284488  1
  Ti  Ti26  1  0.25246997  0.26752347  0.24451032  1
  Ti  Ti27  1  0.50113751  0.00293774  0.99905295  1
  Au  Au28  1  0.25008440  0.22157690  0.73749826  1
  Au  Au29  1  0.75046415  0.78115670  0.26443594  1
  Au  Au30  1  0.49833403  0.50108471  0.00592865  1
  Au  Au31  1  0.00211288  0.50117220  0.00567025  1
