# generated using pymatgen
data_ZrTiC2
_symmetry_space_group_name_H-M   'P 1'
_cell_length_a   5.54646620
_cell_length_b   6.41182185
_cell_length_c   11.55572541
_cell_angle_alpha   73.88993048
_cell_angle_beta   76.09590932
_cell_angle_gamma   73.24937589
_symmetry_Int_Tables_number   1
_chemical_formula_structural   ZrTiC2
_chemical_formula_sum   'Zr8 Ti8 C16'
_cell_volume   372.27947845
_cell_formula_units_Z   8
loop_
 _symmetry_equiv_pos_site_id
 _symmetry_equiv_pos_as_xyz
  1  'x, y, z'
loop_
 _atom_site_type_symbol
 _atom_site_label
 _atom_site_symmetry_multiplicity
 _atom_site_fract_x
 _atom_site_fract_y
 _atom_site_fract_z
 _atom_site_occupancy
  C  C0  1  0.75024533  0.71650317  0.67848306  1
  C  C1  1  0.24392233  0.52924901  0.80714673  1
  C  C2  1  0.74391240  0.60128523  0.43771586  1
  C  C3  1  0.24946362  0.76959546  0.32207615  1
  C  C4  1  0.74348647  0.22863537  0.68280226  1
  C  C5  1  0.25564206  0.41136695  0.56209353  1
  C  C6  1  0.24916710  0.04157375  0.80333348  1
  C  C7  1  0.75576790  0.47080269  0.19318484  1
  C  C8  1  0.23915685  0.65085951  0.06593339  1
  C  C9  1  0.73841282  0.08813965  0.44256669  1
  C  C10  1  0.25642819  0.28560682  0.31655686  1
  C  C11  1  0.26198787  0.89999085  0.55773736  1
  C  C12  1  0.76154545  0.34951841  0.93333484  1
  C  C13  1  0.75113743  0.95775826  0.19639922  1
  C  C14  1  0.24480339  0.16370078  0.06289124  1
  C  C15  1  0.75463642  0.83548001  0.93775557  1
  Ti  Ti16  1  0.50002312  0.06461573  0.62063371  1
  Ti  Ti17  1  0.00061079  0.74671753  0.50022805  1
  Ti  Ti18  1  0.50207662  0.93194656  0.37999416  1
  Ti  Ti19  1  0.50137985  0.56469900  0.62018150  1
  Ti  Ti20  1  0.99617508  0.62343598  0.25526522  1
  Ti  Ti21  1  0.49672024  0.43931931  0.37925058  1
  Ti  Ti22  1  0.00004060  0.50023577  0.99998304  1
  Ti  Ti23  1  0.00355801  0.37919444  0.74451004  1
  Zr  Zr24  1  0.99985320  0.25369247  0.49985275  1
  Zr  Zr25  1  0.99934803  0.12211009  0.25624097  1
  Zr  Zr26  1  0.50189342  0.31288977  0.12831606  1
  Zr  Zr27  1  0.99994807  0.99961023  0.99993645  1
  Zr  Zr28  1  0.49991912  0.19140157  0.87110659  1
  Zr  Zr29  1  0.49837254  0.80799439  0.12999627  1
  Zr  Zr30  1  0.00068922  0.87479947  0.74400045  1
  Zr  Zr31  1  0.49967646  0.68727177  0.87049306  1
