# generated using pymatgen
data_ZrTiC2
_symmetry_space_group_name_H-M   'P 1'
_cell_length_a   5.52646620
_cell_length_b   6.39182185
_cell_length_c   11.53572541
_cell_angle_alpha   73.88993050
_cell_angle_beta   76.09590928
_cell_angle_gamma   73.24937592
_symmetry_Int_Tables_number   1
_chemical_formula_structural   ZrTiC2
_chemical_formula_sum   'Zr8 Ti8 C16'
_cell_volume   369.14003993
_cell_formula_units_Z   8
loop_
 _symmetry_equiv_pos_site_id
 _symmetry_equiv_pos_as_xyz
  1  'x, y, z'
loop_
 _atom_site_type_symbol
 _atom_site_label
 _atom_site_symmetry_multiplicity
 _atom_site_fract_x
 _atom_site_fract_y
 _atom_site_fract_z
 _atom_site_occupancy
  C  C0  1  0.74996781  0.71654554  0.67844808  1
  C  C1  1  0.24371954  0.52925179  0.80714263  1
  C  C2  1  0.74398430  0.60131200  0.43766811  1
  C  C3  1  0.24960655  0.76953082  0.32208751  1
  C  C4  1  0.74336824  0.22879189  0.68281788  1
  C  C5  1  0.25571445  0.41136243  0.56215722  1
  C  C6  1  0.24899700  0.04171881  0.80328379  1
  C  C7  1  0.75603480  0.47078088  0.19320325  1
  C  C8  1  0.23908209  0.65077325  0.06595771  1
  C  C9  1  0.73842490  0.08815932  0.44253906  1
  C  C10  1  0.25675343  0.28551957  0.31656386  1
  C  C11  1  0.26185133  0.89994040  0.55774826  1
  C  C12  1  0.76161684  0.34957469  0.93331133  1
  C  C13  1  0.75121883  0.95763590  0.19643602  1
  C  C14  1  0.24479577  0.16381540  0.06286729  1
  C  C15  1  0.75458306  0.83540233  0.93778322  1
  Ti  Ti16  1  0.49988799  0.06461107  0.62070617  1
  Ti  Ti17  1  0.00055880  0.74682183  0.50023087  1
  Ti  Ti18  1  0.50198349  0.93209394  0.37985593  1
  Ti  Ti19  1  0.50121500  0.56468140  0.62025098  1
  Ti  Ti20  1  0.99642499  0.62336421  0.25532350  1
  Ti  Ti21  1  0.49717109  0.43917270  0.37923486  1
  Ti  Ti22  1  0.00004479  0.50021999  0.99997314  1
  Ti  Ti23  1  0.00331652  0.37918948  0.74446201  1
  Zr  Zr24  1  0.99992616  0.25359625  0.49985145  1
  Zr  Zr25  1  0.99955718  0.12206467  0.25625622  1
  Zr  Zr26  1  0.50217083  0.31285032  0.12826115  1
  Zr  Zr27  1  0.99990406  0.99961964  0.99994691  1
  Zr  Zr28  1  0.49998048  0.19129854  0.87119261  1
  Zr  Zr29  1  0.49827465  0.80806057  0.12994372  1
  Zr  Zr30  1  0.00041676  0.87491016  0.74397774  1
  Zr  Zr31  1  0.49944821  0.68733025  0.87051748  1
