# generated using pymatgen
data_ZrTiC2
_symmetry_space_group_name_H-M   'P 1'
_cell_length_a   5.53646620
_cell_length_b   6.40182185
_cell_length_c   11.54572541
_cell_angle_alpha   73.88993051
_cell_angle_beta   76.09590930
_cell_angle_gamma   73.24937589
_symmetry_Int_Tables_number   1
_chemical_formula_structural   ZrTiC2
_chemical_formula_sum   'Zr8 Ti8 C16'
_cell_volume   370.70763150
_cell_formula_units_Z   8
loop_
 _symmetry_equiv_pos_site_id
 _symmetry_equiv_pos_as_xyz
  1  'x, y, z'
loop_
 _atom_site_type_symbol
 _atom_site_label
 _atom_site_symmetry_multiplicity
 _atom_site_fract_x
 _atom_site_fract_y
 _atom_site_fract_z
 _atom_site_occupancy
  C  C0  1  0.75016370  0.71650662  0.67845519  1
  C  C1  1  0.24384948  0.52923361  0.80715487  1
  C  C2  1  0.74389587  0.60131390  0.43769382  1
  C  C3  1  0.24949128  0.76955335  0.32209562  1
  C  C4  1  0.74343636  0.22869616  0.68281215  1
  C  C5  1  0.25568315  0.41136646  0.56212034  1
  C  C6  1  0.24912470  0.04164537  0.80329845  1
  C  C7  1  0.75586040  0.47081572  0.19318069  1
  C  C8  1  0.23908931  0.65082864  0.06593586  1
  C  C9  1  0.73836960  0.08813873  0.44255919  1
  C  C10  1  0.25654175  0.28559851  0.31655289  1
  C  C11  1  0.26199166  0.89994933  0.55773914  1
  C  C12  1  0.76162602  0.34954216  0.93333231  1
  C  C13  1  0.75116237  0.95769675  0.19642710  1
  C  C14  1  0.24477230  0.16377131  0.06287499  1
  C  C15  1  0.75464941  0.83542585  0.93777129  1
  Ti  Ti16  1  0.49997681  0.06461851  0.62066247  1
  Ti  Ti17  1  0.00059563  0.74674624  0.50024133  1
  Ti  Ti18  1  0.50201425  0.93198906  0.37993836  1
  Ti  Ti19  1  0.50132189  0.56469591  0.62021285  1
  Ti  Ti20  1  0.99625329  0.62339843  0.25530228  1
  Ti  Ti21  1  0.49688441  0.43927250  0.37924581  1
  Ti  Ti22  1  0.00004691  0.50023259  0.99997874  1
  Ti  Ti23  1  0.00348501  0.37919738  0.74446935  1
  Zr  Zr24  1  0.99986810  0.25367299  0.49984473  1
  Zr  Zr25  1  0.99939771  0.12208213  0.25626664  1
  Zr  Zr26  1  0.50201717  0.31287300  0.12829559  1
  Zr  Zr27  1  0.99994645  0.99960980  0.99994273  1
  Zr  Zr28  1  0.49995276  0.19138578  0.87114107  1
  Zr  Zr29  1  0.49832197  0.80800526  0.12998318  1
  Zr  Zr30  1  0.00063101  0.87484630  0.74397717  1
  Zr  Zr31  1  0.49957924  0.68729165  0.87049376  1
