# generated using pymatgen
data_ZrTiC2
_symmetry_space_group_name_H-M   'P 1'
_cell_length_a   5.51646620
_cell_length_b   6.38182185
_cell_length_c   11.52572541
_cell_angle_alpha   73.88993050
_cell_angle_beta   76.09590931
_cell_angle_gamma   73.24937596
_symmetry_Int_Tables_number   1
_chemical_formula_structural   ZrTiC2
_chemical_formula_sum   'Zr8 Ti8 C16'
_cell_volume   367.57669770
_cell_formula_units_Z   8
loop_
 _symmetry_equiv_pos_site_id
 _symmetry_equiv_pos_as_xyz
  1  'x, y, z'
loop_
 _atom_site_type_symbol
 _atom_site_label
 _atom_site_symmetry_multiplicity
 _atom_site_fract_x
 _atom_site_fract_y
 _atom_site_fract_z
 _atom_site_occupancy
  C  C0  1  0.74974279  0.71659806  0.67841798  1
  C  C1  1  0.24352863  0.52926820  0.80713621  1
  C  C2  1  0.74407209  0.60132280  0.43764476  1
  C  C3  1  0.24974987  0.76948605  0.32210609  1
  C  C4  1  0.74325305  0.22889033  0.68281842  1
  C  C5  1  0.25575150  0.41135385  0.56218713  1
  C  C6  1  0.24883023  0.04179038  0.80325450  1
  C  C7  1  0.75624323  0.47075654  0.19322287  1
  C  C8  1  0.23905737  0.65073792  0.06597843  1
  C  C9  1  0.73844130  0.08818568  0.44253432  1
  C  C10  1  0.25702238  0.28543113  0.31658243  1
  C  C11  1  0.26176468  0.89990224  0.55774339  1
  C  C12  1  0.76162212  0.34960171  0.93329190  1
  C  C13  1  0.75133363  0.95756957  0.19645734  1
  C  C14  1  0.24479273  0.16386471  0.06284882  1
  C  C15  1  0.75452242  0.83536130  0.93780186  1
  Ti  Ti16  1  0.49975681  0.06463836  0.62073721  1
  Ti  Ti17  1  0.00053307  0.74689649  0.50022737  1
  Ti  Ti18  1  0.50198416  0.93214088  0.37979905  1
  Ti  Ti19  1  0.50105938  0.56471718  0.62027350  1
  Ti  Ti20  1  0.99665964  0.62330745  0.25537604  1
  Ti  Ti21  1  0.49750916  0.43906197  0.37923253  1
  Ti  Ti22  1  0.00004723  0.50020331  0.99996255  1
  Ti  Ti23  1  0.00310733  0.37920774  0.74441542  1
  Zr  Zr24  1  0.99999769  0.25356765  0.49984665  1
  Zr  Zr25  1  0.99973627  0.12201835  0.25627193  1
  Zr  Zr26  1  0.50234997  0.31281469  0.12823836  1
  Zr  Zr27  1  0.99988702  0.99961054  0.99995382  1
  Zr  Zr28  1  0.49989228  0.19130755  0.87121709  1
  Zr  Zr29  1  0.49830362  0.80804301  0.12994020  1
  Zr  Zr30  1  0.00022637  0.87497797  0.74395916  1
  Zr  Zr31  1  0.49922205  0.68736645  0.87052259  1
