# generated using pymatgen
data_ZrTiC2
_symmetry_space_group_name_H-M   'P 1'
_cell_length_a   5.55646620
_cell_length_b   6.42182185
_cell_length_c   11.56572541
_cell_angle_alpha   73.88993049
_cell_angle_beta   76.09590932
_cell_angle_gamma   73.24937594
_symmetry_Int_Tables_number   1
_chemical_formula_structural   ZrTiC2
_chemical_formula_sum   'Zr8 Ti8 C16'
_cell_volume   373.85558466
_cell_formula_units_Z   8
loop_
 _symmetry_equiv_pos_site_id
 _symmetry_equiv_pos_as_xyz
  1  'x, y, z'
loop_
 _atom_site_type_symbol
 _atom_site_label
 _atom_site_symmetry_multiplicity
 _atom_site_fract_x
 _atom_site_fract_y
 _atom_site_fract_z
 _atom_site_occupancy
  C  C0  1  0.75027403  0.71652281  0.67850798  1
  C  C1  1  0.24400819  0.52927459  0.80715737  1
  C  C2  1  0.74391102  0.60124892  0.43774138  1
  C  C3  1  0.24943402  0.76960816  0.32204972  1
  C  C4  1  0.74353581  0.22862644  0.68278634  1
  C  C5  1  0.25560903  0.41140132  0.56207397  1
  C  C6  1  0.24919692  0.04156195  0.80335450  1
  C  C7  1  0.75569173  0.47077899  0.19317083  1
  C  C8  1  0.23924147  0.65087908  0.06592392  1
  C  C9  1  0.73851506  0.08814134  0.44253939  1
  C  C10  1  0.25632194  0.28561946  0.31655832  1
  C  C11  1  0.26190821  0.90004778  0.55775730  1
  C  C12  1  0.76147252  0.34948511  0.93333937  1
  C  C13  1  0.75112709  0.95774985  0.19638455  1
  C  C14  1  0.24482686  0.16364873  0.06292349  1
  C  C15  1  0.75463398  0.83555273  0.93772693  1
  Ti  Ti16  1  0.50009326  0.06457362  0.62060751  1
  Ti  Ti17  1  0.00055964  0.74665348  0.50021063  1
  Ti  Ti18  1  0.50216145  0.93195021  0.38003276  1
  Ti  Ti19  1  0.50142072  0.56463554  0.62017498  1
  Ti  Ti20  1  0.99604392  0.62350054  0.25517086  1
  Ti  Ti21  1  0.49648821  0.43939603  0.37924552  1
  Ti  Ti22  1  0.00005703  0.50023734  -0.00000084  1
  Ti  Ti23  1  0.00368972  0.37911931  0.74463600  1
  Zr  Zr24  1  0.99985247  0.25366946  0.49986729  1
  Zr  Zr25  1  0.99932249  0.12213497  0.25621172  1
  Zr  Zr26  1  0.50179791  0.31290539  0.12832742  1
  Zr  Zr27  1  0.99995070  0.99962147  0.99992813  1
  Zr  Zr28  1  0.49997284  0.19133891  0.87110012  1
  Zr  Zr29  1  0.49833978  0.80806113  0.12998893  1
  Zr  Zr30  1  0.00073077  0.87477564  0.74401130  1
  Zr  Zr31  1  0.49981119  0.68727969  0.87049229  1
