# generated using pymatgen
data_ZrTiC2
_symmetry_space_group_name_H-M   'P 1'
_cell_length_a   5.56646620
_cell_length_b   6.43182185
_cell_length_c   11.57572541
_cell_angle_alpha   73.88993049
_cell_angle_beta   76.09590930
_cell_angle_gamma   73.24937591
_symmetry_Int_Tables_number   1
_chemical_formula_structural   ZrTiC2
_chemical_formula_sum   'Zr8 Ti8 C16'
_cell_volume   375.43595686
_cell_formula_units_Z   8
loop_
 _symmetry_equiv_pos_site_id
 _symmetry_equiv_pos_as_xyz
  1  'x, y, z'
loop_
 _atom_site_type_symbol
 _atom_site_label
 _atom_site_symmetry_multiplicity
 _atom_site_fract_x
 _atom_site_fract_y
 _atom_site_fract_z
 _atom_site_occupancy
  C  C0  1  0.75033976  0.71652955  0.67849159  1
  C  C1  1  0.24404203  0.52927841  0.80716692  1
  C  C2  1  0.74382337  0.60125631  0.43775820  1
  C  C3  1  0.24938735  0.76958043  0.32207118  1
  C  C4  1  0.74354783  0.22860233  0.68276118  1
  C  C5  1  0.25563028  0.41140953  0.56204944  1
  C  C6  1  0.24926192  0.04156895  0.80333025  1
  C  C7  1  0.75563306  0.47079889  0.19316114  1
  C  C8  1  0.23924363  0.65090259  0.06592876  1
  C  C9  1  0.73844098  0.08814151  0.44257086  1
  C  C10  1  0.25625137  0.28566967  0.31656353  1
  C  C11  1  0.26200336  0.90006032  0.55772942  1
  C  C12  1  0.76149726  0.34946801  0.93333519  1
  C  C13  1  0.75114469  0.95772406  0.19640736  1
  C  C14  1  0.24477533  0.16363212  0.06294312  1
  C  C15  1  0.75469265  0.83557090  0.93770983  1
  Ti  Ti16  1  0.50015954  0.06459020  0.62054567  1
  Ti  Ti17  1  0.00050662  0.74654548  0.50021759  1
  Ti  Ti18  1  0.50226151  0.93182745  0.38012960  1
  Ti  Ti19  1  0.50143535  0.56463192  0.62013317  1
  Ti  Ti20  1  0.99586864  0.62352240  0.25515785  1
  Ti  Ti21  1  0.49628194  0.43950042  0.37925467  1
  Ti  Ti22  1  0.00007894  0.50025156  0.00000261  1
  Ti  Ti23  1  0.00385356  0.37913063  0.74466192  1
  Zr  Zr24  1  0.99984200  0.25375607  0.49986421  1
  Zr  Zr25  1  0.99924861  0.12213037  0.25622075  1
  Zr  Zr26  1  0.50165971  0.31295464  0.12836682  1
  Zr  Zr27  1  0.99995826  0.99961141  0.99994096  1
  Zr  Zr28  1  0.49994208  0.19146239  0.87103196  1
  Zr  Zr29  1  0.49840762  0.80796827  0.13005591  1
  Zr  Zr30  1  0.00079490  0.87470479  0.74398834  1
  Zr  Zr31  1  0.49998585  0.68721844  0.87044998  1
