# generated using pymatgen
data_ZrTiC2
_symmetry_space_group_name_H-M   'P 1'
_cell_length_a   5.62646620
_cell_length_b   6.49182185
_cell_length_c   11.63572541
_cell_angle_alpha   73.88993051
_cell_angle_beta   76.09590930
_cell_angle_gamma   73.24937592
_symmetry_Int_Tables_number   1
_chemical_formula_structural   ZrTiC2
_chemical_formula_sum   'Zr8 Ti8 C16'
_cell_volume   385.00807318
_cell_formula_units_Z   8
loop_
 _symmetry_equiv_pos_site_id
 _symmetry_equiv_pos_as_xyz
  1  'x, y, z'
loop_
 _atom_site_type_symbol
 _atom_site_label
 _atom_site_symmetry_multiplicity
 _atom_site_fract_x
 _atom_site_fract_y
 _atom_site_fract_z
 _atom_site_occupancy
  C  C0  1  0.75115282  0.71640823  0.67869016  1
  C  C1  1  0.24454731  0.52928384  0.80717627  1
  C  C2  1  0.74388565  0.60117726  0.43792258  1
  C  C3  1  0.24913331  0.76987072  0.32195942  1
  C  C4  1  0.74388139  0.22813542  0.68275233  1
  C  C5  1  0.25535872  0.41145822  0.56184736  1
  C  C6  1  0.24962249  0.04102619  0.80360905  1
  C  C7  1  0.75490218  0.47080804  0.19308628  1
  C  C8  1  0.23959894  0.65115431  0.06585759  1
  C  C9  1  0.73864275  0.08812234  0.44257422  1
  C  C10  1  0.25526210  0.28584118  0.31652142  1
  C  C11  1  0.26225072  0.90024165  0.55778248  1
  C  C12  1  0.76100671  0.34926742  0.93341149  1
  C  C13  1  0.75092844  0.95813895  0.19620193  1
  C  C14  1  0.24485776  0.16319491  0.06301096  1
  C  C15  1  0.75469192  0.83586126  0.93762339  1
  Ti  Ti16  1  0.50065585  0.06451999  0.62038466  1
  Ti  Ti17  1  0.00084786  0.74635542  0.50015359  1
  Ti  Ti18  1  0.50264761  0.93153774  0.38045710  1
  Ti  Ti19  1  0.50209610  0.56466666  0.61995260  1
  Ti  Ti20  1  0.99532184  0.62382180  0.25483135  1
  Ti  Ti21  1  0.49492014  0.43984694  0.37929036  1
  Ti  Ti22  1  0.99991485  0.50024489  0.00002771  1
  Ti  Ti23  1  0.00432062  0.37915203  0.74498229  1
  Zr  Zr24  1  0.99969732  0.25383019  0.49991984  1
  Zr  Zr25  1  0.99869983  0.12237509  0.25603936  1
  Zr  Zr26  1  0.50075514  0.31306616  0.12845750  1
  Zr  Zr27  1  0.99994927  0.99965935  0.99988342  1
  Zr  Zr28  1  0.49976779  0.19151702  0.87083705  1
  Zr  Zr29  1  0.49860349  0.80799880  0.13010080  1
  Zr  Zr30  1  0.00141873  0.87440076  0.74416812  1
  Zr  Zr31  1  0.50066038  0.68701724  0.87048730  1
