# generated using pymatgen
data_ZrTiC2
_symmetry_space_group_name_H-M   'P 1'
_cell_length_a   5.58646620
_cell_length_b   6.45182184
_cell_length_c   11.59572541
_cell_angle_alpha   73.88993052
_cell_angle_beta   76.09590929
_cell_angle_gamma   73.24937593
_symmetry_Int_Tables_number   1
_chemical_formula_structural   ZrTiC2
_chemical_formula_sum   'Zr8 Ti8 C16'
_cell_volume   378.60951992
_cell_formula_units_Z   8
loop_
 _symmetry_equiv_pos_site_id
 _symmetry_equiv_pos_as_xyz
  1  'x, y, z'
loop_
 _atom_site_type_symbol
 _atom_site_label
 _atom_site_symmetry_multiplicity
 _atom_site_fract_x
 _atom_site_fract_y
 _atom_site_fract_z
 _atom_site_occupancy
  C  C0  1  0.75045417  0.71653076  0.67856843  1
  C  C1  1  0.24416907  0.52930822  0.80716816  1
  C  C2  1  0.74393675  0.60117797  0.43779194  1
  C  C3  1  0.24935802  0.76968937  0.32200848  1
  C  C4  1  0.74365019  0.22849589  0.68277805  1
  C  C5  1  0.25551196  0.41140390  0.56201131  1
  C  C6  1  0.24929936  0.04141530  0.80342580  1
  C  C7  1  0.75548591  0.47076086  0.19315151  1
  C  C8  1  0.23940839  0.65095829  0.06590287  1
  C  C9  1  0.73860455  0.08816075  0.44254009  1
  C  C10  1  0.25606850  0.28564733  0.31654887  1
  C  C11  1  0.26189906  0.90013312  0.55776723  1
  C  C12  1  0.76129062  0.34942701  0.93335699  1
  C  C13  1  0.75108038  0.95786222  0.19632481  1
  C  C14  1  0.24488413  0.16349662  0.06296432  1
  C  C15  1  0.75460757  0.83567575  0.93768543  1
  Ti  Ti16  1  0.50020297  0.06457398  0.62053235  1
  Ti  Ti17  1  0.00058522  0.74655227  0.50019116  1
  Ti  Ti18  1  0.50234090  0.93182522  0.38016373  1
  Ti  Ti19  1  0.50154090  0.56463942  0.62010711  1
  Ti  Ti20  1  0.99584861  0.62359550  0.25506156  1
  Ti  Ti21  1  0.49607954  0.43951412  0.37926316  1
  Ti  Ti22  1  0.00004387  0.50024447  0.00000936  1
  Ti  Ti23  1  0.00387531  0.37911012  0.74475918  1
  Zr  Zr24  1  0.99982374  0.25374043  0.49988578  1
  Zr  Zr25  1  0.99919769  0.12219654  0.25614975  1
  Zr  Zr26  1  0.50150594  0.31295882  0.12837592  1
  Zr  Zr27  1  0.99995876  0.99962089  0.99991505  1
  Zr  Zr28  1  0.49988111  0.19139144  0.87101519  1
  Zr  Zr29  1  0.49847176  0.80801900  0.13002964  1
  Zr  Zr30  1  0.00087063  0.87464790  0.74406480  1
  Zr  Zr31  1  0.50006441  0.68722650  0.87048198  1
