# generated using pymatgen
data_ZrTiC2
_symmetry_space_group_name_H-M   'P 1'
_cell_length_a   5.60646620
_cell_length_b   6.47182185
_cell_length_c   11.61572541
_cell_angle_alpha   73.88993048
_cell_angle_beta   76.09590931
_cell_angle_gamma   73.24937589
_symmetry_Int_Tables_number   1
_chemical_formula_structural   ZrTiC2
_chemical_formula_sum   'Zr8 Ti8 C16'
_cell_volume   381.80021104
_cell_formula_units_Z   8
loop_
 _symmetry_equiv_pos_site_id
 _symmetry_equiv_pos_as_xyz
  1  'x, y, z'
loop_
 _atom_site_type_symbol
 _atom_site_label
 _atom_site_symmetry_multiplicity
 _atom_site_fract_x
 _atom_site_fract_y
 _atom_site_fract_z
 _atom_site_occupancy
  C  C0  1  0.75075045  0.71648312  0.67863896  1
  C  C1  1  0.24435259  0.52930460  0.80717235  1
  C  C2  1  0.74395817  0.60115882  0.43784430  1
  C  C3  1  0.24927227  0.76979227  0.32196857  1
  C  C4  1  0.74376545  0.22833273  0.68277603  1
  C  C5  1  0.25542818  0.41141455  0.56194435  1
  C  C6  1  0.24943282  0.04122268  0.80352283  1
  C  C7  1  0.75521883  0.47076962  0.19312545  1
  C  C8  1  0.23952373  0.65105071  0.06587583  1
  C  C9  1  0.73866554  0.08815950  0.44254243  1
  C  C10  1  0.25571566  0.28571325  0.31653432  1
  C  C11  1  0.26200284  0.90019098  0.55778723  1
  C  C12  1  0.76111730  0.34935234  0.93338702  1
  C  C13  1  0.75100018  0.95800480  0.19625323  1
  C  C14  1  0.24489826  0.16335291  0.06298196  1
  C  C15  1  0.75461345  0.83577187  0.93765682  1
  Ti  Ti16  1  0.50038678  0.06454591  0.62047736  1
  Ti  Ti17  1  0.00070873  0.74647736  0.50017184  1
  Ti  Ti18  1  0.50248304  0.93171771  0.38027423  1
  Ti  Ti19  1  0.50178069  0.56465078  0.62004631  1
  Ti  Ti20  1  0.99563766  0.62370782  0.25494941  1
  Ti  Ti21  1  0.49560280  0.43964250  0.37927306  1
  Ti  Ti22  1  0.99998353  0.50023503  0.00001796  1
  Ti  Ti23  1  0.00404036  0.37913090  0.74486859  1
  Zr  Zr24  1  0.99976971  0.25378806  0.49990467  1
  Zr  Zr25  1  0.99898494  0.12228860  0.25608011  1
  Zr  Zr26  1  0.50118929  0.31300401  0.12840721  1
  Zr  Zr27  1  0.99994799  0.99963830  0.99990194  1
  Zr  Zr28  1  0.49980940  0.19143555  0.87094303  1
  Zr  Zr29  1  0.49854760  0.80801285  0.13005550  1
  Zr  Zr30  1  0.00109934  0.87451947  0.74412684  1
  Zr  Zr31  1  0.50031242  0.68713043  0.87049024  1
