# generated using pymatgen
data_ZrTiC2
_symmetry_space_group_name_H-M   'P 1'
_cell_length_a   5.61646620
_cell_length_b   6.48182185
_cell_length_c   11.62572541
_cell_angle_alpha   73.88993050
_cell_angle_beta   76.09590928
_cell_angle_gamma   73.24937595
_symmetry_Int_Tables_number   1
_chemical_formula_structural   ZrTiC2
_chemical_formula_sum   'Zr8 Ti8 C16'
_cell_volume   383.40199299
_cell_formula_units_Z   8
loop_
 _symmetry_equiv_pos_site_id
 _symmetry_equiv_pos_as_xyz
  1  'x, y, z'
loop_
 _atom_site_type_symbol
 _atom_site_label
 _atom_site_symmetry_multiplicity
 _atom_site_fract_x
 _atom_site_fract_y
 _atom_site_fract_z
 _atom_site_occupancy
  C  C0  1  0.75084122  0.71647878  0.67866182  1
  C  C1  1  0.24442023  0.52931143  0.80717684  1
  C  C2  1  0.74395588  0.60114148  0.43786768  1
  C  C3  1  0.24923410  0.76981968  0.32195610  1
  C  C4  1  0.74380925  0.22827941  0.68276988  1
  C  C5  1  0.25539169  0.41141887  0.56191570  1
  C  C6  1  0.24948170  0.04116561  0.80355194  1
  C  C7  1  0.75512898  0.47076754  0.19311474  1
  C  C8  1  0.23957583  0.65108438  0.06586744  1
  C  C9  1  0.73869204  0.08815920  0.44254437  1
  C  C10  1  0.25559671  0.28573691  0.31652963  1
  C  C11  1  0.26202282  0.90021895  0.55779041  1
  C  C12  1  0.76105875  0.34932757  0.93339286  1
  C  C13  1  0.75097863  0.95804469  0.19623181  1
  C  C14  1  0.24491097  0.16329882  0.06299805  1
  C  C15  1  0.75461577  0.83581333  0.93764091  1
  Ti  Ti16  1  0.50044715  0.06454080  0.62044840  1
  Ti  Ti17  1  0.00072704  0.74642701  0.50016518  1
  Ti  Ti18  1  0.50255313  0.93166714  0.38032714  1
  Ti  Ti19  1  0.50184855  0.56464915  0.62002013  1
  Ti  Ti20  1  0.99554601  0.62374724  0.25490241  1
  Ti  Ti21  1  0.49540553  0.43970009  0.37927811  1
  Ti  Ti22  1  0.99997521  0.50023952  0.00002307  1
  Ti  Ti23  1  0.00412464  0.37913028  0.74491966  1
  Zr  Zr24  1  0.99975164  0.25381408  0.49991156  1
  Zr  Zr25  1  0.99892251  0.12231345  0.25605734  1
  Zr  Zr26  1  0.50106926  0.31302602  0.12842556  1
  Zr  Zr27  1  0.99995344  0.99964100  0.99989688  1
  Zr  Zr28  1  0.49978467  0.19145477  0.87091203  1
  Zr  Zr29  1  0.49858600  0.80800289  0.13006969  1
  Zr  Zr30  1  0.00117342  0.87447154  0.74414606  1
  Zr  Zr31  1  0.50041720  0.68710839  0.87048662  1
