# generated using pymatgen
data_ZrTiC2
_symmetry_space_group_name_H-M   'P 1'
_cell_length_a   5.57646620
_cell_length_b   6.44182185
_cell_length_c   11.58572541
_cell_angle_alpha   73.88993050
_cell_angle_beta   76.09590931
_cell_angle_gamma   73.24937588
_symmetry_Int_Tables_number   1
_chemical_formula_structural   ZrTiC2
_chemical_formula_sum   'Zr8 Ti8 C16'
_cell_volume   377.02060013
_cell_formula_units_Z   8
loop_
 _symmetry_equiv_pos_site_id
 _symmetry_equiv_pos_as_xyz
  1  'x, y, z'
loop_
 _atom_site_type_symbol
 _atom_site_label
 _atom_site_symmetry_multiplicity
 _atom_site_fract_x
 _atom_site_fract_y
 _atom_site_fract_z
 _atom_site_occupancy
  C  C0  1  0.75039570  0.71652700  0.67854860  1
  C  C1  1  0.24411597  0.52929762  0.80716478  1
  C  C2  1  0.74392764  0.60120151  0.43777503  1
  C  C3  1  0.24938252  0.76966243  0.32202212  1
  C  C4  1  0.74361338  0.22853945  0.68278071  1
  C  C5  1  0.25554477  0.41140248  0.56203230  1
  C  C6  1  0.24926595  0.04146303  0.80340233  1
  C  C7  1  0.75555349  0.47076633  0.19315790  1
  C  C8  1  0.23935329  0.65093181  0.06590982  1
  C  C9  1  0.73857595  0.08815388  0.44253985  1
  C  C10  1  0.25615161  0.28563804  0.31655205  1
  C  C11  1  0.26190167  0.90010585  0.55776398  1
  C  C12  1  0.76135132  0.34944546  0.93335111  1
  C  C13  1  0.75109590  0.95782541  0.19634453  1
  C  C14  1  0.24486500  0.16354663  0.06295070  1
  C  C15  1  0.75461573  0.83563632  0.93769915  1
  Ti  Ti16  1  0.50016508  0.06457448  0.62055755  1
  Ti  Ti17  1  0.00057653  0.74658631  0.50019786  1
  Ti  Ti18  1  0.50228120  0.93186700  0.38012024  1
  Ti  Ti19  1  0.50150104  0.56463770  0.62012965  1
  Ti  Ti20  1  0.99591340  0.62356457  0.25509760  1
  Ti  Ti21  1  0.49621514  0.43947498  0.37925699  1
  Ti  Ti22  1  0.00004886  0.50024216  0.00000600  1
  Ti  Ti23  1  0.00381235  0.37911238  0.74471847  1
  Zr  Zr24  1  0.99983282  0.25371623  0.49987946  1
  Zr  Zr25  1  0.99923897  0.12217617  0.25617070  1
  Zr  Zr26  1  0.50160311  0.31294091  0.12835955  1
  Zr  Zr27  1  0.99995655  0.99962136  0.99991931  1
  Zr  Zr28  1  0.49991237  0.19137341  0.87104348  1
  Zr  Zr29  1  0.49842714  0.80803358  0.13001583  1
  Zr  Zr30  1  0.00082498  0.87469092  0.74404668  1
  Zr  Zr31  1  0.49998062  0.68724459  0.87048565  1
