# generated using pymatgen
data_ZrTiC2
_symmetry_space_group_name_H-M   'P 1'
_cell_length_a   5.59646620
_cell_length_b   6.46182185
_cell_length_c   11.60572541
_cell_angle_alpha   73.88993047
_cell_angle_beta   76.09590930
_cell_angle_gamma   73.24937593
_symmetry_Int_Tables_number   1
_chemical_formula_structural   ZrTiC2
_chemical_formula_sum   'Zr8 Ti8 C16'
_cell_volume   380.20272192
_cell_formula_units_Z   8
loop_
 _symmetry_equiv_pos_site_id
 _symmetry_equiv_pos_as_xyz
  1  'x, y, z'
loop_
 _atom_site_type_symbol
 _atom_site_label
 _atom_site_symmetry_multiplicity
 _atom_site_fract_x
 _atom_site_fract_y
 _atom_site_fract_z
 _atom_site_occupancy
  C  C0  1  0.75062604  0.71653461  0.67859237  1
  C  C1  1  0.24425005  0.52932284  0.80715746  1
  C  C2  1  0.74395520  0.60114509  0.43782815  1
  C  C3  1  0.24930300  0.76975348  0.32200180  1
  C  C4  1  0.74370817  0.22837279  0.68276949  1
  C  C5  1  0.25543910  0.41139278  0.56196009  1
  C  C6  1  0.24938414  0.04128481  0.80347183  1
  C  C7  1  0.75532914  0.47076853  0.19315096  1
  C  C8  1  0.23950207  0.65101945  0.06589154  1
  C  C9  1  0.73859600  0.08816330  0.44256416  1
  C  C10  1  0.25588613  0.28565764  0.31655262  1
  C  C11  1  0.26197964  0.90017979  0.55775857  1
  C  C12  1  0.76119304  0.34937457  0.93337581  1
  C  C13  1  0.75106302  0.95796014  0.19629328  1
  C  C14  1  0.24490031  0.16338120  0.06298025  1
  C  C15  1  0.75459874  0.83575286  0.93766354  1
  Ti  Ti16  1  0.50030750  0.06459139  0.62047406  1
  Ti  Ti17  1  0.00065229  0.74650324  0.50018385  1
  Ti  Ti18  1  0.50242686  0.93169196  0.38027176  1
  Ti  Ti19  1  0.50167272  0.56467548  0.62004513  1
  Ti  Ti20  1  0.99571875  0.62364054  0.25502649  1
  Ti  Ti21  1  0.49580526  0.43960575  0.37928173  1
  Ti  Ti22  1  0.00000749  0.50025862  0.00000514  1
  Ti  Ti23  1  0.00399820  0.37915514  0.74478292  1
  Zr  Zr24  1  0.99980243  0.25381074  0.49989573  1
  Zr  Zr25  1  0.99907143  0.12224966  0.25611616  1
  Zr  Zr26  1  0.50124853  0.31300857  0.12841815  1
  Zr  Zr27  1  0.99996310  0.99960772  0.99990748  1
  Zr  Zr28  1  0.49978518  0.19148553  0.87092997  1
  Zr  Zr29  1  0.49858022  0.80794706  0.13007379  1
  Zr  Zr30  1  0.00099168  0.87454802  0.74410124  1
  Zr  Zr31  1  0.50025456  0.68715670  0.87047448  1
