# generated using pymatgen
data_TaTiNbB4Au
_symmetry_space_group_name_H-M   'P 1'
_cell_length_a   6.56354829
_cell_length_b   6.45561905
_cell_length_c   9.22878690
_cell_angle_alpha   87.00603509
_cell_angle_beta   90.01116639
_cell_angle_gamma   90.26288514
_symmetry_Int_Tables_number   1
_chemical_formula_structural   TaTiNbB4Au
_chemical_formula_sum   'Ta4 Ti4 Nb4 B16 Au4'
_cell_volume   390.50214757
_cell_formula_units_Z   4
loop_
 _symmetry_equiv_pos_site_id
 _symmetry_equiv_pos_as_xyz
  1  'x, y, z'
loop_
 _atom_site_type_symbol
 _atom_site_label
 _atom_site_symmetry_multiplicity
 _atom_site_fract_x
 _atom_site_fract_y
 _atom_site_fract_z
 _atom_site_occupancy
  B  B0  1  0.74789204  0.74972016  0.51024684  1
  B  B1  1  0.74771817  0.24740173  0.49379435  1
  B  B2  1  0.25235123  0.75017844  0.50276410  1
  B  B3  1  0.25155613  0.24744033  0.48792788  1
  B  B4  1  0.50600455  0.51468879  0.24873561  1
  B  B5  1  0.49634735  0.02250382  0.24852837  1
  B  B6  1  0.74970155  0.74305029  0.01808740  1
  B  B7  1  0.74862336  0.25209132  0.99559139  1
  B  B8  1  0.99887220  0.51428612  0.24852133  1
  B  B9  1  0.00676811  0.02206476  0.24803650  1
  B  B10  1  0.25123433  0.75621612  0.00341420  1
  B  B11  1  0.25042679  0.26065738  0.98504889  1
  B  B12  1  0.49679869  0.47940341  0.75490344  1
  B  B13  1  0.50338532  0.97958526  0.75038009  1
  B  B14  1  0.99862569  0.48011070  0.75481152  1
  B  B15  1  0.99352724  0.98094164  0.75055637  1
  Nb  Nb16  1  0.24782920  0.73139199  0.75293813  1
  Nb  Nb17  1  0.00029459  0.99865758  0.49919513  1
  Nb  Nb18  1  0.99959765  0.49835204  0.49692741  1
  Nb  Nb19  1  0.25457913  0.76900120  0.25585843  1
  Ta  Ta20  1  0.74638329  0.22958382  0.73818308  1
  Ta  Ta21  1  0.74667326  0.73426027  0.75524114  1
  Ta  Ta22  1  0.50005343  0.49797648  0.49792098  1
  Ta  Ta23  1  0.99876662  0.00371296  0.99938688  1
  Ti  Ti24  1  0.49954446  0.99826380  0.49943201  1
  Ti  Ti25  1  0.75162564  0.26632166  0.24485264  1
  Ti  Ti26  1  0.25283873  0.26336043  0.24523483  1
  Ti  Ti27  1  0.50090509  0.00342354  0.99922592  1
  Au  Au28  1  0.24992615  0.22382750  0.73875622  1
  Au  Au29  1  0.75063278  0.77899850  0.26397060  1
  Au  Au30  1  0.49850665  0.50115340  0.00590947  1
  Au  Au31  1  0.00201058  0.50137455  0.00561889  1
