# generated using pymatgen
data_CaC2
_symmetry_space_group_name_H-M   'P 1'
_cell_length_a   7.19460472
_cell_length_b   4.07802632
_cell_length_c   7.42853082
_cell_angle_alpha   104.84004402
_cell_angle_beta   106.87879637
_cell_angle_gamma   28.10102052
_symmetry_Int_Tables_number   1
_chemical_formula_structural   CaC2
_chemical_formula_sum   'Ca2 C4'
_cell_volume   98.23864678
_cell_formula_units_Z   2
loop_
 _symmetry_equiv_pos_site_id
 _symmetry_equiv_pos_as_xyz
  1  'x, y, z'
loop_
 _atom_site_type_symbol
 _atom_site_label
 _atom_site_symmetry_multiplicity
 _atom_site_fract_x
 _atom_site_fract_y
 _atom_site_fract_z
 _atom_site_occupancy
  C  C0  1  0.45215998  -0.00000000  0.05888631  1
  C  C1  1  0.54784002  0.00000000  0.94111369  1
  C  C2  1  0.92065899  -0.00000000  0.43552647  1
  C  C3  1  0.07934101  0.00000000  0.56447353  1
  Ca  Ca4  1  0.20419982  0.00000000  0.24661205  1
  Ca  Ca5  1  0.79580018  -0.00000000  0.75338795  1
