# generated using pymatgen
data_Mg2C3
_symmetry_space_group_name_H-M   'P 1'
_cell_length_a   6.45117160
_cell_length_b   5.27715035
_cell_length_c   3.73986154
_cell_angle_alpha   90.00000000
_cell_angle_beta   90.00000000
_cell_angle_gamma   90.00000000
_symmetry_Int_Tables_number   1
_chemical_formula_structural   Mg2C3
_chemical_formula_sum   'Mg4 C6'
_cell_volume   127.31910752
_cell_formula_units_Z   2
loop_
 _symmetry_equiv_pos_site_id
 _symmetry_equiv_pos_as_xyz
  1  'x, y, z'
loop_
 _atom_site_type_symbol
 _atom_site_label
 _atom_site_symmetry_multiplicity
 _atom_site_fract_x
 _atom_site_fract_y
 _atom_site_fract_z
 _atom_site_occupancy
  C  C0  1  0.00000000  0.50000000  0.50000000  1
  C  C1  1  0.50000000  0.00000000  0.00000000  1
  C  C2  1  0.61842069  0.20662071  0.00000000  1
  C  C3  1  0.11842069  0.29337929  0.50000000  1
  C  C4  1  0.88157931  0.70662071  0.50000000  1
  C  C5  1  0.38157931  0.79337929  0.00000000  1
  Mg  Mg6  1  0.29174324  0.39151002  0.00000000  1
  Mg  Mg7  1  0.79174324  0.10848998  0.50000000  1
  Mg  Mg8  1  0.20825676  0.89151002  0.50000000  1
  Mg  Mg9  1  0.70825676  0.60848998  0.00000000  1
