# generated using pymatgen
data_LiC
_symmetry_space_group_name_H-M   'P 1'
_cell_length_a   4.03678055
_cell_length_b   4.03678055
_cell_length_c   4.03678055
_cell_angle_alpha   106.52231908
_cell_angle_beta   96.91799902
_cell_angle_gamma   126.52421558
_symmetry_Int_Tables_number   1
_chemical_formula_structural   LiC
_chemical_formula_sum   'Li2 C2'
_cell_volume   46.96020061
_cell_formula_units_Z   2
loop_
 _symmetry_equiv_pos_site_id
 _symmetry_equiv_pos_as_xyz
  1  'x, y, z'
loop_
 _atom_site_type_symbol
 _atom_site_label
 _atom_site_symmetry_multiplicity
 _atom_site_fract_x
 _atom_site_fract_y
 _atom_site_fract_z
 _atom_site_occupancy
  Li  Li0  1  0.76144463  0.00000000  0.76144463  1
  Li  Li1  1  0.23855537  0.00000000  0.23855537  1
  C  C2  1  0.00000000  0.63040494  0.63040494  1
  C  C3  1  0.00000000  0.36959506  0.36959506  1
