# generated using pymatgen
data_Y4C5
_symmetry_space_group_name_H-M   'P 1'
_cell_length_a   6.57999856
_cell_length_b   11.96335271
_cell_length_c   3.68018800
_cell_angle_alpha   90.00000000
_cell_angle_beta   90.00000000
_cell_angle_gamma   90.00000000
_symmetry_Int_Tables_number   1
_chemical_formula_structural   Y4C5
_chemical_formula_sum   'Y8 C10'
_cell_volume   289.70014361
_cell_formula_units_Z   2
loop_
 _symmetry_equiv_pos_site_id
 _symmetry_equiv_pos_as_xyz
  1  'x, y, z'
loop_
 _atom_site_type_symbol
 _atom_site_label
 _atom_site_symmetry_multiplicity
 _atom_site_fract_x
 _atom_site_fract_y
 _atom_site_fract_z
 _atom_site_occupancy
  C  C0  1  0.09569888  0.34425469  0.00000000  1
  C  C1  1  0.59569888  0.15574531  0.00000000  1
  C  C2  1  0.40430112  0.84425469  -0.00000000  1
  C  C3  1  0.90430112  0.65574531  -0.00000000  1
  C  C4  1  0.13916872  0.23545879  -0.00000000  1
  C  C5  1  0.63916872  0.26454121  -0.00000000  1
  C  C6  1  0.36083128  0.73545879  0.00000000  1
  C  C7  1  0.86083128  0.76454121  0.00000000  1
  C  C8  1  -0.00000000  0.00000000  0.50000000  1
  C  C9  1  0.50000000  0.50000000  0.50000000  1
  Y  Y10  1  0.39310889  0.30363507  0.50000000  1
  Y  Y11  1  0.89310889  0.19636493  0.50000000  1
  Y  Y12  1  0.10689111  0.80363507  0.50000000  1
  Y  Y13  1  0.60689111  0.69636493  0.50000000  1
  Y  Y14  1  0.24386847  0.04256602  0.00000000  1
  Y  Y15  1  0.74386847  0.45743398  0.00000000  1
  Y  Y16  1  0.25613153  0.54256602  -0.00000000  1
  Y  Y17  1  0.75613153  0.95743398  -0.00000000  1
