# generated using pymatgen
data_Nb6C5
_symmetry_space_group_name_H-M   'P 1'
_cell_length_a   5.49296375
_cell_length_b   5.49133559
_cell_length_c   5.46886781
_cell_angle_alpha   99.81401955
_cell_angle_beta   109.92563256
_cell_angle_gamma   59.99019146
_symmetry_Int_Tables_number   1
_chemical_formula_structural   Nb6C5
_chemical_formula_sum   'Nb6 C5'
_cell_volume   134.29517650
_cell_formula_units_Z   1
loop_
 _symmetry_equiv_pos_site_id
 _symmetry_equiv_pos_as_xyz
  1  'x, y, z'
loop_
 _atom_site_type_symbol
 _atom_site_label
 _atom_site_symmetry_multiplicity
 _atom_site_fract_x
 _atom_site_fract_y
 _atom_site_fract_z
 _atom_site_occupancy
  C  C0  1  0.50000000  0.00000000  0.50000000  1
  C  C1  1  0.66477756  0.67044489  -0.00000000  1
  C  C2  1  0.33522244  0.32955511  0.00000000  1
  C  C3  1  0.83327040  0.33345920  0.50000000  1
  C  C4  1  0.16672960  0.66654080  0.50000000  1
  Nb  Nb5  1  0.26386625  0.00000000  0.73613583  1
  Nb  Nb6  1  0.73613375  0.00000000  0.26386417  1
  Nb  Nb7  1  0.56479295  0.35272172  0.74690549  1
  Nb  Nb8  1  0.08248533  0.35272172  0.25309451  1
  Nb  Nb9  1  0.43520705  0.64727828  0.25309451  1
  Nb  Nb10  1  0.91751467  0.64727828  0.74690549  1
