# generated using pymatgen
data_Rb6C5
_symmetry_space_group_name_H-M   'P 1'
_cell_length_a   8.21802163
_cell_length_b   8.21802163
_cell_length_c   5.59731529
_cell_angle_alpha   90.00000000
_cell_angle_beta   90.00000000
_cell_angle_gamma   120.00000003
_symmetry_Int_Tables_number   1
_chemical_formula_structural   Rb6C5
_chemical_formula_sum   'Rb6 C5'
_cell_volume   327.37458624
_cell_formula_units_Z   1
loop_
 _symmetry_equiv_pos_site_id
 _symmetry_equiv_pos_as_xyz
  1  'x, y, z'
loop_
 _atom_site_type_symbol
 _atom_site_label
 _atom_site_symmetry_multiplicity
 _atom_site_fract_x
 _atom_site_fract_y
 _atom_site_fract_z
 _atom_site_occupancy
  C  C0  1  -0.00000000  0.00000000  0.50000000  1
  C  C1  1  0.33333333  0.66666667  0.11344229  1
  C  C2  1  0.66666667  0.33333333  0.88655771  1
  C  C3  1  0.33333333  0.66666667  0.88655771  1
  C  C4  1  0.66666667  0.33333333  0.11344229  1
  Rb  Rb5  1  0.59849528  0.00000000  0.50000000  1
  Rb  Rb6  1  -0.00000000  0.59849528  0.50000000  1
  Rb  Rb7  1  0.40150472  0.40150472  0.50000000  1
  Rb  Rb8  1  0.26232583  0.00000000  0.00000000  1
  Rb  Rb9  1  -0.00000000  0.26232583  0.00000000  1
  Rb  Rb10  1  0.73767417  0.73767417  -0.00000000  1
