# generated using pymatgen
data_YTi15N16
_symmetry_space_group_name_H-M   'P 1'
_cell_length_a   6.07166799
_cell_length_b   6.07166799
_cell_length_c   8.59126133
_cell_angle_alpha   90.00000000
_cell_angle_beta   90.00000000
_cell_angle_gamma   90.00000000
_symmetry_Int_Tables_number   1
_chemical_formula_structural   YTi15N16
_chemical_formula_sum   'Y1 Ti15 N16'
_cell_volume   316.71815636
_cell_formula_units_Z   1
loop_
 _symmetry_equiv_pos_site_id
 _symmetry_equiv_pos_as_xyz
  1  'x, y, z'
loop_
 _atom_site_type_symbol
 _atom_site_label
 _atom_site_symmetry_multiplicity
 _atom_site_fract_x
 _atom_site_fract_y
 _atom_site_fract_z
 _atom_site_occupancy
  Y  Y0  1  0.24999994  0.75000005  0.74999998  1
  N  N1  1  0.74999567  0.74998431  0.49864884  1
  N  N2  1  0.75000209  0.25000199  0.49932262  1
  N  N3  1  0.25000301  0.75000327  0.48761528  1
  N  N4  1  0.24998411  0.24999554  0.49864887  1
  N  N5  1  0.50017678  0.49982320  0.24999990  1
  N  N6  1  0.50020175  0.00020166  0.25000172  1
  N  N7  1  0.75000449  0.75001583  0.00135114  1
  N  N8  1  0.74999809  0.24999788  0.00067750  1
  N  N9  1  -0.00020172  0.49979831  0.24999822  1
  N  N10  1  -0.00017684  0.00017684  0.24999993  1
  N  N11  1  0.24999673  0.74999688  0.01238481  1
  N  N12  1  0.25001571  0.25000436  0.00135113  1
  N  N13  1  0.51152224  0.48847750  0.75000013  1
  N  N14  1  0.51150348  0.01150374  0.74999399  1
  N  N15  1  0.98849654  0.48849628  0.75000621  1
  N  N16  1  0.98847774  0.01152249  0.75000009  1
  Ti  Ti17  1  0.75000001  0.25000001  0.74999974  1
  Ti  Ti18  1  0.75000000  0.74999990  0.75000001  1
  Ti  Ti19  1  0.25000013  0.25000000  0.74999987  1
  Ti  Ti20  1  0.50360802  0.00360803  0.49595915  1
  Ti  Ti21  1  0.50366525  0.49634254  0.49582884  1
  Ti  Ti22  1  0.74999976  0.25000017  0.25000025  1
  Ti  Ti23  1  0.74999984  0.74999990  0.24999993  1
  Ti  Ti24  1  0.99634233  0.00366505  0.49582898  1
  Ti  Ti25  1  0.99637865  0.49637877  0.49595299  1
  Ti  Ti26  1  0.25000020  0.25000011  0.25000013  1
  Ti  Ti27  1  0.25000022  0.74999984  0.24999998  1
  Ti  Ti28  1  0.50362151  0.00362129  0.00404706  1
  Ti  Ti29  1  0.50365761  0.49633493  0.00417106  1
  Ti  Ti30  1  0.99633483  0.00365735  0.00417093  1
  Ti  Ti31  1  0.99639182  0.49639199  0.00404073  1
