# generated using pymatgen
data_Ti2AlC
_symmetry_space_group_name_H-M   'P 1'
_cell_length_a   6.13042513
_cell_length_b   6.13042512
_cell_length_c   13.72510446
_cell_angle_alpha   90.00000000
_cell_angle_beta   90.00000000
_cell_angle_gamma   120.00000000
_symmetry_Int_Tables_number   1
_chemical_formula_structural   Ti2AlC
_chemical_formula_sum   'Ti16 Al8 C8'
_cell_volume   446.71185196
_cell_formula_units_Z   8
loop_
 _symmetry_equiv_pos_site_id
 _symmetry_equiv_pos_as_xyz
  1  'x, y, z'
loop_
 _atom_site_type_symbol
 _atom_site_label
 _atom_site_symmetry_multiplicity
 _atom_site_fract_x
 _atom_site_fract_y
 _atom_site_fract_z
 _atom_site_occupancy
  Al  Al0  1  0.33333335  0.16666667  0.25000000  1
  Al  Al1  1  0.16666667  0.33333335  0.75000000  1
  Al  Al2  1  0.33333335  0.66666667  0.25000000  1
  Al  Al3  1  0.16666667  0.83333335  0.75000000  1
  Al  Al4  1  0.83333335  0.16666667  0.25000000  1
  Al  Al5  1  0.66666667  0.33333335  0.75000000  1
  Al  Al6  1  0.83333335  0.66666667  0.25000000  1
  Al  Al7  1  0.66666667  0.83333335  0.75000000  1
  Ti  Ti8  1  0.33333335  0.16666667  0.91670942  1
  Ti  Ti9  1  0.16666667  0.33333335  0.08329059  1
  Ti  Ti10  1  0.16666667  0.33333335  0.41670942  1
  Ti  Ti11  1  0.33333335  0.16666667  0.58329058  1
  Ti  Ti12  1  0.33333335  0.66666667  0.91670942  1
  Ti  Ti13  1  0.16666667  0.83333335  0.08329059  1
  Ti  Ti14  1  0.16666667  0.83333335  0.41670942  1
  Ti  Ti15  1  0.33333335  0.66666667  0.58329058  1
  Ti  Ti16  1  0.83333335  0.16666667  0.91670942  1
  Ti  Ti17  1  0.66666667  0.33333335  0.08329059  1
  Ti  Ti18  1  0.66666667  0.33333335  0.41670942  1
  Ti  Ti19  1  0.83333335  0.16666667  0.58329058  1
  Ti  Ti20  1  0.83333335  0.66666667  0.91670942  1
  Ti  Ti21  1  0.66666667  0.83333335  0.08329059  1
  Ti  Ti22  1  0.66666667  0.83333335  0.41670942  1
  Ti  Ti23  1  0.83333335  0.66666667  0.58329058  1
  C  C24  1  0.00000000  0.00000000  -0.00000000  1
  C  C25  1  0.00000000  -0.00000000  0.50000000  1
  C  C26  1  0.00000000  0.50000000  -0.00000000  1
  C  C27  1  0.00000000  0.50000000  0.50000000  1
  C  C28  1  0.50000000  0.00000000  -0.00000000  1
  C  C29  1  0.50000000  -0.00000000  0.50000000  1
  C  C30  1  0.50000000  0.50000000  -0.00000000  1
  C  C31  1  0.50000000  0.50000000  0.50000000  1
