# generated using pymatgen
data_Mg7Ti34Al5V2
_symmetry_space_group_name_H-M   'P 1'
_cell_length_a   13.13609396
_cell_length_b   9.93601249
_cell_length_c   6.45191857
_cell_angle_alpha   90.28002463
_cell_angle_beta   89.73776963
_cell_angle_gamma   90.27744598
_symmetry_Int_Tables_number   1
_chemical_formula_structural   Mg7Ti34Al5V2
_chemical_formula_sum   'Mg7 Ti34 Al5 V2'
_cell_volume   842.07829314
_cell_formula_units_Z   1
loop_
 _symmetry_equiv_pos_site_id
 _symmetry_equiv_pos_as_xyz
  1  'x, y, z'
loop_
 _atom_site_type_symbol
 _atom_site_label
 _atom_site_symmetry_multiplicity
 _atom_site_fract_x
 _atom_site_fract_y
 _atom_site_fract_z
 _atom_site_occupancy
  Ti  Ti0  1  0.01073226  0.00236045  0.96997594  1
  Ti  Ti1  1  0.13805491  0.16361161  0.22349178  1
  Ti  Ti2  1  0.00089192  0.99519249  0.53001308  1
  Ti  Ti3  1  0.13784090  0.16449504  0.77997039  1
  Ti  Ti4  1  0.10386857  0.50363816  0.26858132  1
  Ti  Ti5  1  0.98083493  0.66861343  0.01207259  1
  Ti  Ti6  1  0.97632284  0.68626233  0.49885698  1
  Ti  Ti7  1  0.26328131  0.97531201  0.99122363  1
  Ti  Ti8  1  0.36346656  0.17828150  0.21911899  1
  Ti  Ti9  1  0.24008997  0.35853018  0.02617542  1
  Ti  Ti10  1  0.38022145  0.51586947  0.21227023  1
  Ti  Ti11  1  0.25241913  0.34862881  0.46533384  1
  Ti  Ti12  1  0.38646823  0.51341584  0.77035234  1
  Ti  Ti13  1  0.38188086  0.80114457  0.21480407  1
  Ti  Ti14  1  0.26066598  0.64977443  0.49638376  1
  Ti  Ti15  1  0.38752964  0.78834376  0.78298492  1
  Ti  Ti16  1  0.49640424  0.99437561  0.99925343  1
  Ti  Ti17  1  0.51308451  0.34555826  0.01028055  1
  Ti  Ti18  1  0.65022278  0.49117926  0.29284803  1
  Ti  Ti19  1  0.49998064  0.34684132  0.48422104  1
  Ti  Ti20  1  0.63032449  0.50430709  0.72720278  1
  Ti  Ti21  1  0.53577383  0.65503971  0.03037487  1
  Ti  Ti22  1  0.65053170  0.85489227  0.21226569  1
  Ti  Ti23  1  0.51134558  0.66906386  0.47426351  1
  Ti  Ti24  1  0.73574607  0.01004257  0.52218862  1
  Ti  Ti25  1  0.86763132  0.14892582  0.76803052  1
  Ti  Ti26  1  0.74300551  0.33725007  0.98710050  1
  Ti  Ti27  1  0.87184942  0.49298498  0.27304667  1
  Ti  Ti28  1  0.73945790  0.30620362  0.54216246  1
  Ti  Ti29  1  0.86274221  0.49740357  0.72163007  1
  Ti  Ti30  1  0.76143520  0.65583460  0.00945934  1
  Ti  Ti31  1  0.86713019  0.86313436  0.22378992  1
  Ti  Ti32  1  0.75640596  0.68972257  0.47951195  1
  Ti  Ti33  1  0.86030133  0.85587593  0.78369350  1
  Al  Al34  1  0.99635779  0.33117223  0.00029156  1
  Al  Al35  1  0.12644291  0.81927935  0.74489872  1
  Al  Al36  1  0.23279602  0.65756591  0.00213131  1
  Al  Al37  1  0.61783478  0.16524992  0.24538328  1
  Al  Al38  1  0.62838900  0.82962436  0.76169449  1
  Mg  Mg39  1  0.00019673  0.30731209  0.51209505  1
  Mg  Mg40  1  0.11058876  0.50450146  0.73809708  1
  Mg  Mg41  1  0.12197046  0.82892626  0.25453578  1
  Mg  Mg42  1  0.26123446  0.98445957  0.50058166  1
  Mg  Mg43  1  0.37348648  0.18318517  0.75464202  1
  Mg  Mg44  1  0.49623160  0.99288124  0.49709271  1
  Mg  Mg45  1  0.87045505  0.16038831  0.24466359  1
  V  V46  1  0.61609343  0.17584509  0.77278778  1
  V  V47  1  0.72998014  0.02749952  0.96817227  1
