# generated using pymatgen
data_Al16V32C15
_symmetry_space_group_name_H-M   'P 1'
_cell_length_a   5.78859834
_cell_length_b   5.78859834
_cell_length_c   26.33728903
_cell_angle_alpha   90.00000000
_cell_angle_beta   90.00000000
_cell_angle_gamma   120.00000002
_symmetry_Int_Tables_number   1
_chemical_formula_structural   Al16V32C15
_chemical_formula_sum   'Al16 V32 C15'
_cell_volume   764.27302694
_cell_formula_units_Z   1
loop_
 _symmetry_equiv_pos_site_id
 _symmetry_equiv_pos_as_xyz
  1  'x, y, z'
loop_
 _atom_site_type_symbol
 _atom_site_label
 _atom_site_symmetry_multiplicity
 _atom_site_fract_x
 _atom_site_fract_y
 _atom_site_fract_z
 _atom_site_occupancy
  Al  Al0  1  0.33315777  0.16657984  0.12481473  1
  Al  Al1  1  0.16657984  0.33315777  0.37518527  1
  Al  Al2  1  0.33335182  0.16667867  0.62511844  1
  Al  Al3  1  0.16667867  0.33335182  0.87488156  1
  Al  Al4  1  0.33333395  0.66666606  0.12538521  1
  Al  Al5  1  0.16657859  0.83342142  0.37518599  1
  Al  Al6  1  0.33333518  0.66666483  0.62510963  1
  Al  Al7  1  0.16667498  0.83332503  0.87488177  1
  Al  Al8  1  0.83342142  0.16657859  0.12481401  1
  Al  Al9  1  0.66666606  0.33333395  0.37461479  1
  Al  Al10  1  0.83332503  0.16667498  0.62511823  1
  Al  Al11  1  0.66666483  0.33333518  0.87489037  1
  Al  Al12  1  0.83342017  0.66684224  0.12481473  1
  Al  Al13  1  0.66684224  0.83342017  0.37518527  1
  Al  Al14  1  0.83332134  0.66664819  0.62511844  1
  Al  Al15  1  0.66664819  0.83332134  0.87488156  1
  V  V16  1  0.33365587  0.16682802  0.45710216  1
  V  V17  1  0.16682802  0.33365587  0.04289784  1
  V  V18  1  0.16614188  0.33228506  0.20697353  1
  V  V19  1  0.33228506  0.16614188  0.29302647  1
  V  V20  1  0.33318080  0.16659051  0.95686071  1
  V  V21  1  0.16659051  0.33318080  0.54313929  1
  V  V22  1  0.16665281  0.33330401  0.70698062  1
  V  V23  1  0.33330401  0.16665281  0.79301938  1
  V  V24  1  0.33333339  0.66666662  0.45733270  1
  V  V25  1  0.16682800  0.83317201  0.04289696  1
  V  V26  1  0.16614328  0.83385673  0.20697324  1
  V  V27  1  0.33333297  0.66666704  0.29203867  1
  V  V28  1  0.33333340  0.66666661  0.95688985  1
  V  V29  1  0.16659037  0.83340964  0.54313865  1
  V  V30  1  0.16665178  0.83334823  0.70698085  1
  V  V31  1  0.33333386  0.66666615  0.79303860  1
  V  V32  1  0.83317201  0.16682800  0.45710304  1
  V  V33  1  0.66666662  0.33333339  0.04266730  1
  V  V34  1  0.66666704  0.33333297  0.20796133  1
  V  V35  1  0.83385673  0.16614328  0.29302676  1
  V  V36  1  0.83340964  0.16659037  0.95686135  1
  V  V37  1  0.66666661  0.33333340  0.54311015  1
  V  V38  1  0.66666615  0.33333386  0.70696140  1
  V  V39  1  0.83334823  0.16665178  0.79301915  1
  V  V40  1  0.83317199  0.66634414  0.45710216  1
  V  V41  1  0.66634414  0.83317199  0.04289784  1
  V  V42  1  0.66771495  0.83385813  0.20697353  1
  V  V43  1  0.83385813  0.66771495  0.29302647  1
  V  V44  1  0.83340950  0.66681921  0.95686071  1
  V  V45  1  0.66681921  0.83340950  0.54313929  1
  V  V46  1  0.66669600  0.83334720  0.70698062  1
  V  V47  1  0.83334720  0.66669600  0.79301938  1
  C  C48  1  0.00000019  -0.00000019  0.99993696  1
  C  C49  1  -0.00000019  0.00000019  0.50006304  1
  C  C50  1  0.00000000  0.00000000  0.75000000  1
  C  C51  1  0.99996861  0.49998463  0.99982910  1
  C  C52  1  0.00000000  0.50000000  0.25000000  1
  C  C53  1  0.00003139  0.50001537  0.50017090  1
  C  C54  1  0.00000000  0.50000000  0.75000000  1
  C  C55  1  0.50001537  0.00003139  0.99982910  1
  C  C56  1  0.50000000  0.00000000  0.25000000  1
  C  C57  1  0.49998463  0.99996861  0.50017090  1
  C  C58  1  0.50000000  0.00000000  0.75000000  1
  C  C59  1  0.50001578  0.49998422  0.99982900  1
  C  C60  1  0.50000000  0.50000000  0.25000000  1
  C  C61  1  0.49998422  0.50001578  0.50017100  1
  C  C62  1  0.50000000  0.50000000  0.75000000  1
