# generated using pymatgen
data_HfTaTiNbMoC5
_symmetry_space_group_name_H-M   'P 1'
_cell_length_a   6.96944500
_cell_length_b   4.37480300
_cell_length_c   6.96463200
_cell_angle_alpha   90.00000000
_cell_angle_beta   90.00000000
_cell_angle_gamma   90.00000000
_symmetry_Int_Tables_number   1
_chemical_formula_structural   HfTaTiNbMoC5
_chemical_formula_sum   'Hf2 Ta2 Ti2 Nb2 Mo2 C10'
_cell_volume   212.35127375
_cell_formula_units_Z   2
loop_
 _symmetry_equiv_pos_site_id
 _symmetry_equiv_pos_as_xyz
  1  'x, y, z'
loop_
 _atom_site_type_symbol
 _atom_site_label
 _atom_site_symmetry_multiplicity
 _atom_site_fract_x
 _atom_site_fract_y
 _atom_site_fract_z
 _atom_site_occupancy
  C  C0  1  0.70079409  0.00000000  0.90230168  1
  C  C1  1  0.49294882  0.00000000  0.49868368  1
  C  C2  1  0.60333676  0.50000000  0.19695705  1
  C  C3  1  0.90477984  0.00000000  0.29567048  1
  C  C4  1  0.99716218  0.50000000  0.00262708  1
  C  C5  1  0.29654928  0.00000000  0.10198733  1
  C  C6  1  0.39984110  0.50000000  0.80626590  1
  C  C7  1  0.80458481  0.50000000  0.59827649  1
  C  C8  1  0.10627493  0.00000000  0.69761831  1
  C  C9  1  0.19419171  0.50000000  0.39898929  1
  Hf  Hf10  1  0.49803698  0.50000000  0.50092589  1
  Hf  Hf11  1  0.80506646  0.00000000  0.59811970  1
  Mo  Mo12  1  0.39744917  0.00000000  0.79459798  1
  Mo  Mo13  1  0.10395802  0.50000000  0.69312570  1
  Nb  Nb14  1  0.29308573  0.50000000  0.10505790  1
  Nb  Nb15  1  0.59438517  0.00000000  0.20027770  1
  Ta  Ta16  1  0.70392152  0.50000000  0.90154814  1
  Ta  Ta17  1  0.00468247  0.00000000  0.00279759  1
  Ti  Ti18  1  0.19740699  0.00000000  0.40202464  1
  Ti  Ti19  1  0.90154397  0.50000000  0.30214744  1
