# generated using pymatgen
data_HfTaTiNbMoC5
_symmetry_space_group_name_H-M   'P 1'
_cell_length_a   6.98444500
_cell_length_b   4.38980300
_cell_length_c   6.97963200
_cell_angle_alpha   90.00000000
_cell_angle_beta   90.00000000
_cell_angle_gamma   90.00000000
_symmetry_Int_Tables_number   1
_chemical_formula_structural   HfTaTiNbMoC5
_chemical_formula_sum   'Hf2 Ta2 Ti2 Nb2 Mo2 C10'
_cell_volume   213.99787354
_cell_formula_units_Z   2
loop_
 _symmetry_equiv_pos_site_id
 _symmetry_equiv_pos_as_xyz
  1  'x, y, z'
loop_
 _atom_site_type_symbol
 _atom_site_label
 _atom_site_symmetry_multiplicity
 _atom_site_fract_x
 _atom_site_fract_y
 _atom_site_fract_z
 _atom_site_occupancy
  C  C0  1  0.70081032  0.00000000  0.90236857  1
  C  C1  1  0.49303049  0.00000000  0.49866919  1
  C  C2  1  0.60323537  0.50000000  0.19685085  1
  C  C3  1  0.90474260  0.00000000  0.29564969  1
  C  C4  1  0.99711945  0.50000000  0.00257207  1
  C  C5  1  0.29648809  0.00000000  0.10183534  1
  C  C6  1  0.39985797  0.50000000  0.80622033  1
  C  C7  1  0.80460013  0.50000000  0.59843427  1
  C  C8  1  0.10627857  0.00000000  0.69776042  1
  C  C9  1  0.19430920  0.50000000  0.39898621  1
  Hf  Hf10  1  0.49814046  0.50000000  0.50087072  1
  Hf  Hf11  1  0.80517259  0.00000000  0.59820899  1
  Mo  Mo12  1  0.39726230  0.00000000  0.79425346  1
  Mo  Mo13  1  0.10412386  0.50000000  0.69284312  1
  Nb  Nb14  1  0.29291014  0.50000000  0.10511685  1
  Nb  Nb15  1  0.59419767  0.00000000  0.20022599  1
  Ta  Ta16  1  0.70399823  0.50000000  0.90167285  1
  Ta  Ta17  1  0.00470938  0.00000000  0.00308335  1
  Ti  Ti18  1  0.19744936  0.00000000  0.40208958  1
  Ti  Ti19  1  0.90156386  0.50000000  0.30228815  1
