# generated using pymatgen
data_HfTaTiNbMoC5
_symmetry_space_group_name_H-M   'P 1'
_cell_length_a   6.95444500
_cell_length_b   4.35980300
_cell_length_c   6.94963200
_cell_angle_alpha   90.00000000
_cell_angle_beta   90.00000000
_cell_angle_gamma   90.00000000
_symmetry_Int_Tables_number   1
_chemical_formula_structural   HfTaTiNbMoC5
_chemical_formula_sum   'Hf2 Ta2 Ti2 Nb2 Mo2 C10'
_cell_volume   210.71291295
_cell_formula_units_Z   2
loop_
 _symmetry_equiv_pos_site_id
 _symmetry_equiv_pos_as_xyz
  1  'x, y, z'
loop_
 _atom_site_type_symbol
 _atom_site_label
 _atom_site_symmetry_multiplicity
 _atom_site_fract_x
 _atom_site_fract_y
 _atom_site_fract_z
 _atom_site_occupancy
  C  C0  1  0.70078361  0.00000000  0.90223071  1
  C  C1  1  0.49286804  0.00000000  0.49870563  1
  C  C2  1  0.60343908  0.50000000  0.19705452  1
  C  C3  1  0.90481778  0.00000000  0.29568889  1
  C  C4  1  0.99719251  0.50000000  0.00268332  1
  C  C5  1  0.29660290  0.00000000  0.10215459  1
  C  C6  1  0.39981698  0.50000000  0.80630954  1
  C  C7  1  0.80457611  0.50000000  0.59811133  1
  C  C8  1  0.10627183  0.00000000  0.69748118  1
  C  C9  1  0.19408450  0.50000000  0.39899304  1
  Hf  Hf10  1  0.49794302  0.50000000  0.50097312  1
  Hf  Hf11  1  0.80497362  0.00000000  0.59803200  1
  Mo  Mo12  1  0.39761768  0.00000000  0.79494039  1
  Mo  Mo13  1  0.10380831  0.50000000  0.69338971  1
  Nb  Nb14  1  0.29325108  0.50000000  0.10501632  1
  Nb  Nb15  1  0.59456420  0.00000000  0.20031951  1
  Ta  Ta16  1  0.70384089  0.50000000  0.90142580  1
  Ta  Ta17  1  0.00465092  0.00000000  0.00252617  1
  Ti  Ti18  1  0.19737287  0.00000000  0.40195580  1
  Ti  Ti19  1  0.90152409  0.50000000  0.30200841  1
