# generated using pymatgen
data_Mg19Ti22Al5V2
_symmetry_space_group_name_H-M   'P 1'
_cell_length_a   13.40747586
_cell_length_b   10.22866501
_cell_length_c   6.52852161
_cell_angle_alpha   90.58784293
_cell_angle_beta   89.79574274
_cell_angle_gamma   90.00813958
_symmetry_Int_Tables_number   1
_chemical_formula_structural   Mg19Ti22Al5V2
_chemical_formula_sum   'Mg19 Ti22 Al5 V2'
_cell_volume   895.27241882
_cell_formula_units_Z   1
loop_
 _symmetry_equiv_pos_site_id
 _symmetry_equiv_pos_as_xyz
  1  'x, y, z'
loop_
 _atom_site_type_symbol
 _atom_site_label
 _atom_site_symmetry_multiplicity
 _atom_site_fract_x
 _atom_site_fract_y
 _atom_site_fract_z
 _atom_site_occupancy
  Al  Al0  1  0.00293790  0.02577108  0.98721055  1
  Al  Al1  1  0.11678897  0.16632288  0.73159880  1
  Al  Al2  1  0.23808647  0.33907897  0.49994929  1
  Al  Al3  1  0.23325894  0.68700931  0.01593418  1
  Al  Al4  1  0.89219587  0.16976826  0.25503087  1
  Mg  Mg5  1  0.11909955  0.15225185  0.27799581  1
  Mg  Mg6  1  0.12861848  0.51138917  0.74792058  1
  Mg  Mg7  1  0.99551743  0.65110925  0.48586596  1
  Mg  Mg8  1  0.36189483  0.16497561  0.25345863  1
  Mg  Mg9  1  0.24206894  0.98553200  0.51336701  1
  Mg  Mg10  1  0.36198176  0.49796572  0.76142548  1
  Mg  Mg11  1  0.38145713  0.84915644  0.23401318  1
  Mg  Mg12  1  0.24273450  0.68350228  0.48044876  1
  Mg  Mg13  1  0.37792572  0.83181020  0.76795903  1
  Mg  Mg14  1  0.48879976  0.33763137  0.49094958  1
  Mg  Mg15  1  0.63691801  0.48660348  0.74679357  1
  Mg  Mg16  1  0.50926008  0.65236067  0.01283813  1
  Mg  Mg17  1  0.62494152  0.85881582  0.26138270  1
  Mg  Mg18  1  0.49913388  0.65258354  0.47838344  1
  Mg  Mg19  1  0.62703319  0.84662201  0.74296707  1
  Mg  Mg20  1  0.76048987  0.00765935  0.99502480  1
  Mg  Mg21  1  0.76287071  0.32133783  0.49527163  1
  Mg  Mg22  1  0.75871331  0.67593168  0.00559117  1
  Mg  Mg23  1  0.76353423  0.66947466  0.48955559  1
  V  V24  1  0.98642116  0.99480426  0.51410289  1
  V  V25  1  0.14305175  0.49028520  0.23695303  1
  Ti  Ti26  1  0.01208780  0.33525818  0.01020231  1
  Ti  Ti27  1  0.00903597  0.34959090  0.48393600  1
  Ti  Ti28  1  0.00213449  0.63377360  0.03022746  1
  Ti  Ti29  1  0.09918692  0.84525752  0.22356021  1
  Ti  Ti30  1  0.10227316  0.83730224  0.77915899  1
  Ti  Ti31  1  0.23296540  0.00068044  0.98281727  1
  Ti  Ti32  1  0.35872217  0.18775097  0.77736564  1
  Ti  Ti33  1  0.22832461  0.31808831  0.00662819  1
  Ti  Ti34  1  0.34985852  0.48605048  0.21898745  1
  Ti  Ti35  1  0.50232200  0.04064771  0.97983166  1
  Ti  Ti36  1  0.62266146  0.16324182  0.27862152  1
  Ti  Ti37  1  0.49228912  0.02700233  0.53785861  1
  Ti  Ti38  1  0.62573009  0.16863765  0.71616716  1
  Ti  Ti39  1  0.50588657  0.31535753  0.01573543  1
  Ti  Ti40  1  0.64040192  0.46746158  0.22864764  1
  Ti  Ti41  1  0.78266195  0.00616480  0.51106664  1
  Ti  Ti42  1  0.89236640  0.18659651  0.74465656  1
  Ti  Ti43  1  0.74201754  0.29341695  0.99720093  1
  Ti  Ti44  1  0.86791520  0.46854899  0.21283907  1
  Ti  Ti45  1  0.87824378  0.47332585  0.77449447  1
  Ti  Ti46  1  0.89750369  0.84962671  0.23635162  1
  Ti  Ti47  1  0.89967730  0.83646603  0.77165345  1
