# generated using pymatgen
data_Mg13Ti28Al5V2
_symmetry_space_group_name_H-M   'P 1'
_cell_length_a   13.24557885
_cell_length_b   9.91706952
_cell_length_c   6.60158610
_cell_angle_alpha   90.07512360
_cell_angle_beta   90.22111832
_cell_angle_gamma   90.04568216
_symmetry_Int_Tables_number   1
_chemical_formula_structural   Mg13Ti28Al5V2
_chemical_formula_sum   'Mg13 Ti28 Al5 V2'
_cell_volume   867.15921765
_cell_formula_units_Z   1
loop_
 _symmetry_equiv_pos_site_id
 _symmetry_equiv_pos_as_xyz
  1  'x, y, z'
loop_
 _atom_site_type_symbol
 _atom_site_label
 _atom_site_symmetry_multiplicity
 _atom_site_fract_x
 _atom_site_fract_y
 _atom_site_fract_z
 _atom_site_occupancy
  Ti  Ti0  1  0.01276674  0.00863435  0.99222811  1
  Ti  Ti1  1  0.10385653  0.16622431  0.27868077  1
  Ti  Ti2  1  0.97050745  0.97602711  0.51540241  1
  Ti  Ti3  1  0.10664481  0.16812467  0.71147254  1
  Ti  Ti4  1  0.98939111  0.34291954  0.04661055  1
  Ti  Ti5  1  0.12713096  0.48322412  0.29495082  1
  Ti  Ti6  1  0.97648814  0.35056177  0.47150806  1
  Ti  Ti7  1  0.10650041  0.85252217  0.26830259  1
  Ti  Ti8  1  0.99312513  0.67194089  0.48912755  1
  Ti  Ti9  1  0.11002974  0.84977745  0.72437432  1
  Ti  Ti10  1  0.23469005  0.01519130  0.99299159  1
  Ti  Ti11  1  0.39444328  0.16936839  0.22346810  1
  Ti  Ti12  1  0.39306427  0.18042960  0.76875488  1
  Ti  Ti13  1  0.22965586  0.67872137  0.48639388  1
  Ti  Ti14  1  0.51358593  0.99438710  0.97070272  1
  Ti  Ti15  1  0.52270471  0.34015522  0.02744095  1
  Ti  Ti16  1  0.51145873  0.34340946  0.47084734  1
  Ti  Ti17  1  0.64531973  0.48138991  0.73019186  1
  Ti  Ti18  1  0.62807414  0.83217442  0.28723765  1
  Ti  Ti19  1  0.51197696  0.65611189  0.51175147  1
  Ti  Ti20  1  0.88171757  0.14825856  0.26901674  1
  Ti  Ti21  1  0.76649064  0.96400191  0.52948319  1
  Ti  Ti22  1  0.74992499  0.34151364  0.03524364  1
  Ti  Ti23  1  0.85903820  0.53164092  0.21909311  1
  Ti  Ti24  1  0.76189539  0.34627810  0.47098095  1
  Ti  Ti25  1  0.86431592  0.50591709  0.77978585  1
  Ti  Ti26  1  0.72826737  0.68006290  0.95732406  1
  Ti  Ti27  1  0.76513405  0.68281714  0.51798973  1
  Mg  Mg28  1  0.11977279  0.48566300  0.74027456  1
  Mg  Mg29  1  0.25761188  0.01000227  0.49688023  1
  Mg  Mg30  1  0.23817495  0.31531294  0.00645622  1
  Mg  Mg31  1  0.36328585  0.49712955  0.25398498  1
  Mg  Mg32  1  0.36866935  0.48759730  0.74178775  1
  Mg  Mg33  1  0.23353470  0.67809263  0.00457632  1
  Mg  Mg34  1  0.38072185  0.83838223  0.24751550  1
  Mg  Mg35  1  0.37145396  0.83171365  0.74308119  1
  Mg  Mg36  1  0.63624556  0.14306186  0.26642178  1
  Mg  Mg37  1  0.63544805  0.17572442  0.73379025  1
  Mg  Mg38  1  0.50875085  0.66567042  0.98945245  1
  Mg  Mg39  1  0.74956414  0.98608396  0.98258596  1
  Mg  Mg40  1  0.87500276  0.18222728  0.75860495  1
  Al  Al41  1  0.01647391  0.65213510  0.01874822  1
  Al  Al42  1  0.49967587  0.00589733  0.51199447  1
  Al  Al43  1  0.64052708  0.52269530  0.26326480  1
  Al  Al44  1  0.87591608  0.82541267  0.21868248  1
  Al  Al45  1  0.89341668  0.80600101  0.79758702  1
  V  V46  1  0.25618065  0.29799828  0.49322390  1
  V  V47  1  0.62137421  0.83141350  0.68973154  1
