# generated using pymatgen
data_HfTaTiNbMoC5
_symmetry_space_group_name_H-M   'P 1'
_cell_length_a   7.11944500
_cell_length_b   4.52480300
_cell_length_c   7.11463200
_cell_angle_alpha   90.00000000
_cell_angle_beta   90.00000000
_cell_angle_gamma   90.00000000
_symmetry_Int_Tables_number   1
_chemical_formula_structural   HfTaTiNbMoC5
_chemical_formula_sum   'Hf2 Ta2 Ti2 Nb2 Mo2 C10'
_cell_volume   229.19136778
_cell_formula_units_Z   2
loop_
 _symmetry_equiv_pos_site_id
 _symmetry_equiv_pos_as_xyz
  1  'x, y, z'
loop_
 _atom_site_type_symbol
 _atom_site_label
 _atom_site_symmetry_multiplicity
 _atom_site_fract_x
 _atom_site_fract_y
 _atom_site_fract_z
 _atom_site_occupancy
  C  C0  1  0.70118425  0.00000000  0.90324175  1
  C  C1  1  0.49353039  0.00000000  0.49855318  1
  C  C2  1  0.60237220  0.50000000  0.19587071  1
  C  C3  1  0.90459995  0.00000000  0.29553009  1
  C  C4  1  0.99676432  0.50000000  0.00240500  1
  C  C5  1  0.29593301  0.00000000  0.10048043  1
  C  C6  1  0.39982682  0.50000000  0.80548777  1
  C  C7  1  0.80469099  0.50000000  0.59991098  1
  C  C8  1  0.10649778  0.00000000  0.69888644  1
  C  C9  1  0.19536639  0.50000000  0.39897801  1
  Hf  Hf10  1  0.49935254  0.50000000  0.50027627  1
  Hf  Hf11  1  0.80649067  0.00000000  0.59925869  1
  Mo  Mo12  1  0.39480537  0.00000000  0.78973683  1
  Mo  Mo13  1  0.10600528  0.50000000  0.68907613  1
  Nb  Nb14  1  0.29101060  0.50000000  0.10605194  1
  Nb  Nb15  1  0.59210190  0.00000000  0.19979537  1
  Ta  Ta16  1  0.70498310  0.50000000  0.90318441  1
  Ta  Ta17  1  0.00494199  0.00000000  0.00670899  1
  Ti  Ti18  1  0.19787446  0.00000000  0.40272343  1
  Ti  Ti19  1  0.90166800  0.50000000  0.30384358  1
