# generated using pymatgen
data_HfTaTiNbMoC5
_symmetry_space_group_name_H-M   'P 1'
_cell_length_a   7.07444500
_cell_length_b   4.47980300
_cell_length_c   7.06963200
_cell_angle_alpha   90.00000000
_cell_angle_beta   90.00000000
_cell_angle_gamma   90.00000000
_symmetry_Int_Tables_number   1
_chemical_formula_structural   HfTaTiNbMoC5
_chemical_formula_sum   'Hf2 Ta2 Ti2 Nb2 Mo2 C10'
_cell_volume   224.05162524
_cell_formula_units_Z   2
loop_
 _symmetry_equiv_pos_site_id
 _symmetry_equiv_pos_as_xyz
  1  'x, y, z'
loop_
 _atom_site_type_symbol
 _atom_site_label
 _atom_site_symmetry_multiplicity
 _atom_site_fract_x
 _atom_site_fract_y
 _atom_site_fract_z
 _atom_site_occupancy
  C  C0  1  0.70104266  0.00000000  0.90286048  1
  C  C1  1  0.49339244  0.00000000  0.49858591  1
  C  C2  1  0.60263798  0.50000000  0.19620629  1
  C  C3  1  0.90461105  0.00000000  0.29551965  1
  C  C4  1  0.99692030  0.50000000  0.00237840  1
  C  C5  1  0.29612631  0.00000000  0.10100062  1
  C  C6  1  0.39990231  0.50000000  0.80585152  1
  C  C7  1  0.80463718  0.50000000  0.59936831  1
  C  C8  1  0.10638383  0.00000000  0.69851307  1
  C  C9  1  0.19495544  0.50000000  0.39899765  1
  Hf  Hf10  1  0.49879048  0.50000000  0.50053269  1
  Hf  Hf11  1  0.80589487  0.00000000  0.59878742  1
  Mo  Mo12  1  0.39590314  0.00000000  0.79182799  1
  Mo  Mo13  1  0.10515086  0.50000000  0.69082290  1
  Nb  Nb14  1  0.29178117  0.50000000  0.10551343  1
  Nb  Nb15  1  0.59294345  0.00000000  0.19987551  1
  Ta  Ta16  1  0.70461771  0.50000000  0.90254653  1
  Ta  Ta17  1  0.00491241  0.00000000  0.00509368  1
  Ti  Ti18  1  0.19771395  0.00000000  0.40251646  1
  Ti  Ti19  1  0.90168246  0.50000000  0.30320149  1
