# generated using pymatgen
data_HfTaTiNbMoC5
_symmetry_space_group_name_H-M   'P 1'
_cell_length_a   7.08944500
_cell_length_b   4.49480300
_cell_length_c   7.08463200
_cell_angle_alpha   90.00000000
_cell_angle_beta   90.00000000
_cell_angle_gamma   90.00000000
_symmetry_Int_Tables_number   1
_chemical_formula_structural   HfTaTiNbMoC5
_chemical_formula_sum   'Hf2 Ta2 Ti2 Nb2 Mo2 C10'
_cell_volume   225.75646500
_cell_formula_units_Z   2
loop_
 _symmetry_equiv_pos_site_id
 _symmetry_equiv_pos_as_xyz
  1  'x, y, z'
loop_
 _atom_site_type_symbol
 _atom_site_label
 _atom_site_symmetry_multiplicity
 _atom_site_fract_x
 _atom_site_fract_y
 _atom_site_fract_z
 _atom_site_occupancy
  C  C0  1  0.70108010  0.00000000  0.90297402  1
  C  C1  1  0.49344684  0.00000000  0.49857395  1
  C  C2  1  0.60254473  0.50000000  0.19609174  1
  C  C3  1  0.90460510  0.00000000  0.29551253  1
  C  C4  1  0.99687247  0.50000000  0.00237191  1
  C  C5  1  0.29605913  0.00000000  0.10083820  1
  C  C6  1  0.39988337  0.50000000  0.80575132  1
  C  C7  1  0.80465621  0.50000000  0.59954237  1
  C  C8  1  0.10641536  0.00000000  0.69863863  1
  C  C9  1  0.19509061  0.50000000  0.39899472  1
  Hf  Hf10  1  0.49895053  0.50000000  0.50045850  1
  Hf  Hf11  1  0.80606660  0.00000000  0.59892392  1
  Mo  Mo12  1  0.39558150  0.00000000  0.79123264  1
  Mo  Mo13  1  0.10539989  0.50000000  0.69031934  1
  Nb  Nb14  1  0.29154609  0.50000000  0.10565753  1
  Nb  Nb15  1  0.59269070  0.00000000  0.19984211  1
  Ta  Ta16  1  0.70472770  0.50000000  0.90273494  1
  Ta  Ta17  1  0.00492670  0.00000000  0.00556259  1
  Ti  Ti18  1  0.19776929  0.00000000  0.40258647  1
  Ti  Ti19  1  0.90168710  0.50000000  0.30339256  1
