# generated using pymatgen
data_HfTaTiNbMoC5
_symmetry_space_group_name_H-M   'P 1'
_cell_length_a   7.04444500
_cell_length_b   4.44980300
_cell_length_c   7.03963200
_cell_angle_alpha   90.00000000
_cell_angle_beta   90.00000000
_cell_angle_gamma   90.00000000
_symmetry_Int_Tables_number   1
_chemical_formula_structural   HfTaTiNbMoC5
_chemical_formula_sum   'Hf2 Ta2 Ti2 Nb2 Mo2 C10'
_cell_volume   220.66706769
_cell_formula_units_Z   2
loop_
 _symmetry_equiv_pos_site_id
 _symmetry_equiv_pos_as_xyz
  1  'x, y, z'
loop_
 _atom_site_type_symbol
 _atom_site_label
 _atom_site_symmetry_multiplicity
 _atom_site_fract_x
 _atom_site_fract_y
 _atom_site_fract_z
 _atom_site_occupancy
  C  C0  1  0.70091277  0.00000000  0.90269473  1
  C  C1  1  0.49330122  0.00000000  0.49860080  1
  C  C2  1  0.60283849  0.50000000  0.19641913  1
  C  C3  1  0.90462896  0.00000000  0.29558481  1
  C  C4  1  0.99698173  0.50000000  0.00240398  1
  C  C5  1  0.29625493  0.00000000  0.10120776  1
  C  C6  1  0.39989741  0.50000000  0.80598071  1
  C  C7  1  0.80463544  0.50000000  0.59908090  1
  C  C8  1  0.10631790  0.00000000  0.69831036  1
  C  C9  1  0.19476459  0.50000000  0.39897663  1
  Hf  Hf10  1  0.49860488  0.50000000  0.50062714  1
  Hf  Hf11  1  0.80565065  0.00000000  0.59861177  1
  Mo  Mo12  1  0.39637318  0.00000000  0.79257268  1
  Mo  Mo13  1  0.10486352  0.50000000  0.69146355  1
  Nb  Nb14  1  0.29215153  0.50000000  0.10542912  1
  Nb  Nb15  1  0.59336699  0.00000000  0.20003144  1
  Ta  Ta16  1  0.70438196  0.50000000  0.90224415  1
  Ta  Ta17  1  0.00482910  0.00000000  0.00443929  1
  Ti  Ti18  1  0.19762470  0.00000000  0.40239076  1
  Ti  Ti19  1  0.90162007  0.50000000  0.30293022  1
