# generated using pymatgen
data_HfTaTiNbMoC5
_symmetry_space_group_name_H-M   'P 1'
_cell_length_a   7.20944500
_cell_length_b   4.61480300
_cell_length_c   7.20463200
_cell_angle_alpha   90.00000000
_cell_angle_beta   90.00000000
_cell_angle_gamma   90.00000000
_symmetry_Int_Tables_number   1
_chemical_formula_structural   HfTaTiNbMoC5
_chemical_formula_sum   'Hf2 Ta2 Ti2 Nb2 Mo2 C10'
_cell_volume   239.69932000
_cell_formula_units_Z   2
loop_
 _symmetry_equiv_pos_site_id
 _symmetry_equiv_pos_as_xyz
  1  'x, y, z'
loop_
 _atom_site_type_symbol
 _atom_site_label
 _atom_site_symmetry_multiplicity
 _atom_site_fract_x
 _atom_site_fract_y
 _atom_site_fract_z
 _atom_site_occupancy
  C  C0  1  0.70187241  0.00000000  0.90427431  1
  C  C1  1  0.49352924  0.00000000  0.49870191  1
  C  C2  1  0.60189541  0.50000000  0.19523518  1
  C  C3  1  0.90477206  0.00000000  0.29564528  1
  C  C4  1  0.99627989  0.50000000  0.00307813  1
  C  C5  1  0.29544221  0.00000000  0.09974746  1
  C  C6  1  0.39939764  0.50000000  0.80422375  1
  C  C7  1  0.80496136  0.50000000  0.60095702  1
  C  C8  1  0.10713113  0.00000000  0.69917185  1
  C  C9  1  0.19622453  0.50000000  0.39897145  1
  Hf  Hf10  1  0.50098156  0.50000000  0.49972924  1
  Hf  Hf11  1  0.80826688  0.00000000  0.60049801  1
  Mo  Mo12  1  0.39169825  0.00000000  0.78420493  1
  Mo  Mo13  1  0.10790492  0.50000000  0.68406434  1
  Nb  Nb14  1  0.28906308  0.50000000  0.10755390  1
  Nb  Nb15  1  0.58988045  0.00000000  0.19957092  1
  Ta  Ta16  1  0.70613602  0.50000000  0.90514177  1
  Ta  Ta17  1  0.00478530  0.00000000  0.01121204  1
  Ti  Ti18  1  0.19827846  0.00000000  0.40281335  1
  Ti  Ti19  1  0.90149925  0.50000000  0.30520515  1
