# generated using pymatgen
data_HfTaTiNbMoC5
_symmetry_space_group_name_H-M   'P 1'
_cell_length_a   7.17944500
_cell_length_b   4.58480300
_cell_length_c   7.17463200
_cell_angle_alpha   90.00000000
_cell_angle_beta   90.00000000
_cell_angle_gamma   90.00000000
_symmetry_Int_Tables_number   1
_chemical_formula_structural   HfTaTiNbMoC5
_chemical_formula_sum   'Hf2 Ta2 Ti2 Nb2 Mo2 C10'
_cell_volume   236.16263328
_cell_formula_units_Z   2
loop_
 _symmetry_equiv_pos_site_id
 _symmetry_equiv_pos_as_xyz
  1  'x, y, z'
loop_
 _atom_site_type_symbol
 _atom_site_label
 _atom_site_symmetry_multiplicity
 _atom_site_fract_x
 _atom_site_fract_y
 _atom_site_fract_z
 _atom_site_occupancy
  C  C0  1  0.70155794  0.00000000  0.90388376  1
  C  C1  1  0.49358254  0.00000000  0.49863373  1
  C  C2  1  0.60205267  0.50000000  0.19545345  1
  C  C3  1  0.90468629  0.00000000  0.29557436  1
  C  C4  1  0.99648521  0.50000000  0.00271040  1
  C  C5  1  0.29562964  0.00000000  0.09993002  1
  C  C6  1  0.39958910  0.50000000  0.80475576  1
  C  C7  1  0.80482999  0.50000000  0.60061869  1
  C  C8  1  0.10684464  0.00000000  0.69915366  1
  C  C9  1  0.19593130  0.50000000  0.39896843  1
  Hf  Hf10  1  0.50034942  0.50000000  0.49992744  1
  Hf  Hf11  1  0.80757416  0.00000000  0.60003187  1
  Mo  Mo12  1  0.39288859  0.00000000  0.78626533  1
  Mo  Mo13  1  0.10724679  0.50000000  0.68595054  1
  Nb  Nb14  1  0.28979429  0.50000000  0.10702168  1
  Nb  Nb15  1  0.59072512  0.00000000  0.19968732  1
  Ta  Ta16  1  0.70565251  0.50000000  0.90437467  1
  Ta  Ta17  1  0.00489632  0.00000000  0.00947756  1
  Ti  Ti18  1  0.19811884  0.00000000  0.40284090  1
  Ti  Ti19  1  0.90156468  0.50000000  0.30474041  1
