# generated using pymatgen
data_HfTaTiNbMoC5
_symmetry_space_group_name_H-M   'P 1'
_cell_length_a   7.19444500
_cell_length_b   4.59980300
_cell_length_c   7.18963200
_cell_angle_alpha   90.00000000
_cell_angle_beta   90.00000000
_cell_angle_gamma   90.00000000
_symmetry_Int_Tables_number   1
_chemical_formula_structural   HfTaTiNbMoC5
_chemical_formula_sum   'Hf2 Ta2 Ti2 Nb2 Mo2 C10'
_cell_volume   237.92670527
_cell_formula_units_Z   2
loop_
 _symmetry_equiv_pos_site_id
 _symmetry_equiv_pos_as_xyz
  1  'x, y, z'
loop_
 _atom_site_type_symbol
 _atom_site_label
 _atom_site_symmetry_multiplicity
 _atom_site_fract_x
 _atom_site_fract_y
 _atom_site_fract_z
 _atom_site_occupancy
  C  C0  1  0.70170075  0.00000000  0.90407736  1
  C  C1  1  0.49356356  0.00000000  0.49866324  1
  C  C2  1  0.60197481  0.50000000  0.19535010  1
  C  C3  1  0.90472642  0.00000000  0.29560934  1
  C  C4  1  0.99638263  0.50000000  0.00287483  1
  C  C5  1  0.29553779  0.00000000  0.09982247  1
  C  C6  1  0.39950201  0.50000000  0.80450056  1
  C  C7  1  0.80489365  0.50000000  0.60079478  1
  C  C8  1  0.10697618  0.00000000  0.69917425  1
  C  C9  1  0.19608228  0.50000000  0.39896706  1
  Hf  Hf10  1  0.50066061  0.50000000  0.49982730  1
  Hf  Hf11  1  0.80791452  0.00000000  0.60026224  1
  Mo  Mo12  1  0.39230400  0.00000000  0.78523719  1
  Mo  Mo13  1  0.10758411  0.50000000  0.68502141  1
  Nb  Nb14  1  0.28944164  0.50000000  0.10729442  1
  Nb  Nb15  1  0.59031289  0.00000000  0.19964139  1
  Ta  Ta16  1  0.70587032  0.50000000  0.90474638  1
  Ta  Ta17  1  0.00484600  0.00000000  0.01032805  1
  Ti  Ti18  1  0.19819549  0.00000000  0.40283316  1
  Ti  Ti19  1  0.90153039  0.50000000  0.30497445  1
