# generated using pymatgen
data_HfTaTiNbMoC5
_symmetry_space_group_name_H-M   'P 1'
_cell_length_a   7.14944500
_cell_length_b   4.55480300
_cell_length_c   7.14463200
_cell_angle_alpha   90.00000000
_cell_angle_beta   90.00000000
_cell_angle_gamma   90.00000000
_symmetry_Int_Tables_number   1
_chemical_formula_structural   HfTaTiNbMoC5
_chemical_formula_sum   'Hf2 Ta2 Ti2 Nb2 Mo2 C10'
_cell_volume   232.66003654
_cell_formula_units_Z   2
loop_
 _symmetry_equiv_pos_site_id
 _symmetry_equiv_pos_as_xyz
  1  'x, y, z'
loop_
 _atom_site_type_symbol
 _atom_site_label
 _atom_site_symmetry_multiplicity
 _atom_site_fract_x
 _atom_site_fract_y
 _atom_site_fract_z
 _atom_site_occupancy
  C  C0  1  0.70134192  0.00000000  0.90353970  1
  C  C1  1  0.49357967  0.00000000  0.49857169  1
  C  C2  1  0.60220555  0.50000000  0.19564932  1
  C  C3  1  0.90462479  0.00000000  0.29555496  1
  C  C4  1  0.99663484  0.50000000  0.00251527  1
  C  C5  1  0.29578922  0.00000000  0.10016798  1
  C  C6  1  0.39973288  0.50000000  0.80515770  1
  C  C7  1  0.80474399  0.50000000  0.60026718  1
  C  C8  1  0.10663429  0.00000000  0.69907100  1
  C  C9  1  0.19564670  0.50000000  0.39896714  1
  Hf  Hf10  1  0.49981036  0.50000000  0.50009263  1
  Hf  Hf11  1  0.80698286  0.00000000  0.59962714  1
  Mo  Mo12  1  0.39391949  0.00000000  0.78810366  1
  Mo  Mo13  1  0.10660957  0.50000000  0.68764979  1
  Nb  Nb14  1  0.29043554  0.50000000  0.10647776  1
  Nb  Nb15  1  0.59145192  0.00000000  0.19973087  1
  Ta  Ta16  1  0.70529772  0.50000000  0.90372372  1
  Ta  Ta17  1  0.00493722  0.00000000  0.00801284  1
  Ti  Ti18  1  0.19799143  0.00000000  0.40281829  1
  Ti  Ti19  1  0.90163007  0.50000000  0.30430132  1
