# generated using pymatgen
data_HfTaTiNbMoC5
_symmetry_space_group_name_H-M   'P 1'
_cell_length_a   7.16444500
_cell_length_b   4.56980300
_cell_length_c   7.15963200
_cell_angle_alpha   90.00000000
_cell_angle_beta   90.00000000
_cell_angle_gamma   90.00000000
_symmetry_Int_Tables_number   1
_chemical_formula_structural   HfTaTiNbMoC5
_chemical_formula_sum   'Hf2 Ta2 Ti2 Nb2 Mo2 C10'
_cell_volume   234.40708378
_cell_formula_units_Z   2
loop_
 _symmetry_equiv_pos_site_id
 _symmetry_equiv_pos_as_xyz
  1  'x, y, z'
loop_
 _atom_site_type_symbol
 _atom_site_label
 _atom_site_symmetry_multiplicity
 _atom_site_fract_x
 _atom_site_fract_y
 _atom_site_fract_z
 _atom_site_occupancy
  C  C0  1  0.70143092  0.00000000  0.90372376  1
  C  C1  1  0.49360578  0.00000000  0.49862333  1
  C  C2  1  0.60212882  0.50000000  0.19557591  1
  C  C3  1  0.90464014  0.00000000  0.29555050  1
  C  C4  1  0.99655839  0.50000000  0.00258200  1
  C  C5  1  0.29570290  0.00000000  0.10003851  1
  C  C6  1  0.39965705  0.50000000  0.80497024  1
  C  C7  1  0.80479705  0.50000000  0.60047532  1
  C  C8  1  0.10675420  0.00000000  0.69909757  1
  C  C9  1  0.19579586  0.50000000  0.39896284  1
  Hf  Hf10  1  0.50011942  0.50000000  0.50001638  1
  Hf  Hf11  1  0.80731670  0.00000000  0.59983079  1
  Mo  Mo12  1  0.39344043  0.00000000  0.78709416  1
  Mo  Mo13  1  0.10700187  0.50000000  0.68668307  1
  Nb  Nb14  1  0.29008842  0.50000000  0.10687759  1
  Nb  Nb15  1  0.59107406  0.00000000  0.19977948  1
  Ta  Ta16  1  0.70541315  0.50000000  0.90405345  1
  Ta  Ta17  1  0.00490834  0.00000000  0.00876465  1
  Ti  Ti18  1  0.19803655  0.00000000  0.40279854  1
  Ti  Ti19  1  0.90152997  0.50000000  0.30450187  1
