# generated using pymatgen
data_HfTaTiNbMoC5
_symmetry_space_group_name_H-M   'P 1'
_cell_length_a   7.23944500
_cell_length_b   4.64480300
_cell_length_c   7.23463200
_cell_angle_alpha   90.00000000
_cell_angle_beta   90.00000000
_cell_angle_gamma   90.00000000
_symmetry_Int_Tables_number   1
_chemical_formula_structural   HfTaTiNbMoC5
_chemical_formula_sum   'Hf2 Ta2 Ti2 Nb2 Mo2 C10'
_cell_volume   243.27025871
_cell_formula_units_Z   2
loop_
 _symmetry_equiv_pos_site_id
 _symmetry_equiv_pos_as_xyz
  1  'x, y, z'
loop_
 _atom_site_type_symbol
 _atom_site_label
 _atom_site_symmetry_multiplicity
 _atom_site_fract_x
 _atom_site_fract_y
 _atom_site_fract_z
 _atom_site_occupancy
  C  C0  1  0.70233991  0.00000000  0.90477986  1
  C  C1  1  0.49338536  0.00000000  0.49886447  1
  C  C2  1  0.60178435  0.50000000  0.19513566  1
  C  C3  1  0.90488231  0.00000000  0.29582687  1
  C  C4  1  0.99591899  0.50000000  0.00369184  1
  C  C5  1  0.29528732  0.00000000  0.09961016  1
  C  C6  1  0.39915814  0.50000000  0.80352228  1
  C  C7  1  0.80524077  0.50000000  0.60128866  1
  C  C8  1  0.10756450  0.00000000  0.69900780  1
  C  C9  1  0.19658604  0.50000000  0.39898796  1
  Hf  Hf10  1  0.50183704  0.50000000  0.49956329  1
  Hf  Hf11  1  0.80910288  0.00000000  0.60109801  1
  Mo  Mo12  1  0.39031103  0.00000000  0.78152388  1
  Mo  Mo13  1  0.10876274  0.50000000  0.68170024  1
  Nb  Nb14  1  0.28825453  0.50000000  0.10839135  1
  Nb  Nb15  1  0.58886058  0.00000000  0.19947305  1
  Ta  Ta16  1  0.70653702  0.50000000  0.90605103  1
  Ta  Ta17  1  0.00454026  0.00000000  0.01335453  1
  Ti  Ti18  1  0.19842457  0.00000000  0.40257049  1
  Ti  Ti19  1  0.90122167  0.50000000  0.30555855  1
