# generated using pymatgen
data_HfTaTiNbWC5
_symmetry_space_group_name_H-M   'P 1'
_cell_length_a   7.05357960
_cell_length_b   4.46395889
_cell_length_c   7.05609173
_cell_angle_alpha   90.00000000
_cell_angle_beta   90.00000000
_cell_angle_gamma   90.00000000
_symmetry_Int_Tables_number   1
_chemical_formula_structural   HfTaTiNbWC5
_chemical_formula_sum   'Hf2 Ta2 Ti2 Nb2 W2 C10'
_cell_volume   222.17437963
_cell_formula_units_Z   2
loop_
 _symmetry_equiv_pos_site_id
 _symmetry_equiv_pos_as_xyz
  1  'x, y, z'
loop_
 _atom_site_type_symbol
 _atom_site_label
 _atom_site_symmetry_multiplicity
 _atom_site_fract_x
 _atom_site_fract_y
 _atom_site_fract_z
 _atom_site_occupancy
  C  C0  1  0.70272948  0.00000000  0.90787648  1
  C  C1  1  0.49729887  0.00000000  0.49857898  1
  C  C2  1  0.60077258  0.50000000  0.19802226  1
  C  C3  1  0.89522159  0.00000000  0.29221404  1
  C  C4  1  0.00161845  0.50000000  0.00819468  1
  C  C5  1  0.29879599  0.00000000  0.09704061  1
  C  C6  1  0.40481636  0.50000000  0.80414630  1
  C  C7  1  0.79609951  0.50000000  0.59958388  1
  C  C8  1  0.10365333  0.00000000  0.70266977  1
  C  C9  1  0.19739655  0.50000000  0.39270432  1
  Hf  Hf10  1  0.80074675  0.00000000  0.59836672  1
  Hf  Hf11  1  0.10152057  0.50000000  0.70522842  1
  Nb  Nb12  1  0.49623207  0.50000000  0.49123416  1
  Nb  Nb13  1  0.20253029  0.00000000  0.39258907  1
  Ta  Ta14  1  0.39936716  0.00000000  0.80448453  1
  Ta  Ta15  1  0.70187792  0.50000000  0.90553913  1
  Ti  Ti16  1  0.29681984  0.50000000  0.10065384  1
  Ti  Ti17  1  0.00547919  0.00000000  0.00604374  1
  W  W18  1  0.58689736  0.00000000  0.19617569  1
  W  W19  1  0.91012613  0.50000000  0.29865336  1
