# generated using pymatgen
data_HfTaTiNbWC5
_symmetry_space_group_name_H-M   'P 1'
_cell_length_a   7.02357900
_cell_length_b   4.43395800
_cell_length_c   7.02609100
_cell_angle_alpha   90.00000000
_cell_angle_beta   90.00000000
_cell_angle_gamma   90.00000000
_symmetry_Int_Tables_number   1
_chemical_formula_structural   HfTaTiNbWC5
_chemical_formula_sum   'Hf2 Ta2 Ti2 Nb2 W2 C10'
_cell_volume   218.80831263
_cell_formula_units_Z   2
loop_
 _symmetry_equiv_pos_site_id
 _symmetry_equiv_pos_as_xyz
  1  'x, y, z'
loop_
 _atom_site_type_symbol
 _atom_site_label
 _atom_site_symmetry_multiplicity
 _atom_site_fract_x
 _atom_site_fract_y
 _atom_site_fract_z
 _atom_site_occupancy
  C  C0  1  0.70325282  0.00000000  0.90785713  1
  C  C1  1  0.49728215  0.00000000  0.49874653  1
  C  C2  1  0.60047285  0.50000000  0.19800538  1
  C  C3  1  0.89511640  0.00000000  0.29205587  1
  C  C4  1  0.00196658  0.50000000  0.00803018  1
  C  C5  1  0.29856285  0.00000000  0.09707449  1
  C  C6  1  0.40480261  0.50000000  0.80432294  1
  C  C7  1  0.79607835  0.50000000  0.59955759  1
  C  C8  1  0.10354784  0.00000000  0.70278057  1
  C  C9  1  0.19735713  0.50000000  0.39261983  1
  Hf  Hf10  1  0.80073274  0.00000000  0.59838905  1
  Hf  Hf11  1  0.10158291  0.50000000  0.70495555  1
  Nb  Nb12  1  0.49619495  0.50000000  0.49173843  1
  Nb  Nb13  1  0.20221350  0.00000000  0.39277542  1
  Ta  Ta14  1  0.39967300  0.00000000  0.80441046  1
  Ta  Ta15  1  0.70233758  0.50000000  0.90524035  1
  Ti  Ti16  1  0.29689350  0.50000000  0.10059838  1
  Ti  Ti17  1  0.00546707  0.00000000  0.00563303  1
  W  W18  1  0.58727389  0.00000000  0.19649669  1
  W  W19  1  0.90919127  0.50000000  0.29871211  1
