# generated using pymatgen
data_HfTaTiNbWC5
_symmetry_space_group_name_H-M   'P 1'
_cell_length_a   6.97857900
_cell_length_b   4.38895800
_cell_length_c   6.98109100
_cell_angle_alpha   90.00000000
_cell_angle_beta   90.00000000
_cell_angle_gamma   90.00000000
_symmetry_Int_Tables_number   1
_chemical_formula_structural   HfTaTiNbWC5
_chemical_formula_sum   'Hf2 Ta2 Ti2 Nb2 W2 C10'
_cell_volume   213.82167301
_cell_formula_units_Z   2
loop_
 _symmetry_equiv_pos_site_id
 _symmetry_equiv_pos_as_xyz
  1  'x, y, z'
loop_
 _atom_site_type_symbol
 _atom_site_label
 _atom_site_symmetry_multiplicity
 _atom_site_fract_x
 _atom_site_fract_y
 _atom_site_fract_z
 _atom_site_occupancy
  C  C0  1  0.70396840  0.00000000  0.90784024  1
  C  C1  1  0.49726571  0.00000000  0.49897499  1
  C  C2  1  0.60002416  0.50000000  0.19797963  1
  C  C3  1  0.89499572  0.00000000  0.29179072  1
  C  C4  1  0.00247835  0.50000000  0.00782378  1
  C  C5  1  0.29819698  0.00000000  0.09711296  1
  C  C6  1  0.40476391  0.50000000  0.80461628  1
  C  C7  1  0.79604778  0.50000000  0.59950973  1
  C  C8  1  0.10338741  0.00000000  0.70295752  1
  C  C9  1  0.19732217  0.50000000  0.39248278  1
  Hf  Hf10  1  0.80072506  0.00000000  0.59836890  1
  Hf  Hf11  1  0.10164397  0.50000000  0.70461470  1
  Nb  Nb12  1  0.49614619  0.50000000  0.49244419  1
  Nb  Nb13  1  0.20176890  0.00000000  0.39304118  1
  Ta  Ta14  1  0.40009747  0.00000000  0.80428750  1
  Ta  Ta15  1  0.70294345  0.50000000  0.90484891  1
  Ti  Ti16  1  0.29705334  0.50000000  0.10052063  1
  Ti  Ti17  1  0.00549162  0.00000000  0.00508800  1
  W  W18  1  0.58769614  0.00000000  0.19691119  1
  W  W19  1  0.90798328  0.50000000  0.29878618  1
