# generated using pymatgen
data_HfTaTiNbWC5
_symmetry_space_group_name_H-M   'P 1'
_cell_length_a   6.94857900
_cell_length_b   4.35895800
_cell_length_c   6.95109100
_cell_angle_alpha   90.00000000
_cell_angle_beta   90.00000000
_cell_angle_gamma   90.00000000
_symmetry_Int_Tables_number   1
_chemical_formula_structural   HfTaTiNbWC5
_chemical_formula_sum   'Hf2 Ta2 Ti2 Nb2 W2 C10'
_cell_volume   210.53856477
_cell_formula_units_Z   2
loop_
 _symmetry_equiv_pos_site_id
 _symmetry_equiv_pos_as_xyz
  1  'x, y, z'
loop_
 _atom_site_type_symbol
 _atom_site_label
 _atom_site_symmetry_multiplicity
 _atom_site_fract_x
 _atom_site_fract_y
 _atom_site_fract_z
 _atom_site_occupancy
  C  C0  1  0.70441984  0.00000000  0.90783770  1
  C  C1  1  0.49725606  0.00000000  0.49911377  1
  C  C2  1  0.59971563  0.50000000  0.19795808  1
  C  C3  1  0.89494374  0.00000000  0.29160367  1
  C  C4  1  0.00281721  0.50000000  0.00770649  1
  C  C5  1  0.29795016  0.00000000  0.09713459  1
  C  C6  1  0.40473274  0.50000000  0.80483409  1
  C  C7  1  0.79603869  0.50000000  0.59947006  1
  C  C8  1  0.10328338  0.00000000  0.70308110  1
  C  C9  1  0.19730093  0.50000000  0.39238122  1
  Hf  Hf10  1  0.80072129  0.00000000  0.59834383  1
  Hf  Hf11  1  0.10168027  0.50000000  0.70440579  1
  Nb  Nb12  1  0.49610655  0.50000000  0.49287854  1
  Nb  Nb13  1  0.20149797  0.00000000  0.39322452  1
  Ta  Ta14  1  0.40035915  0.00000000  0.80421120  1
  Ta  Ta15  1  0.70331202  0.50000000  0.90461806  1
  Ti  Ti16  1  0.29715250  0.50000000  0.10046647  1
  Ti  Ti17  1  0.00551331  0.00000000  0.00475687  1
  W  W18  1  0.58792598  0.00000000  0.19715655  1
  W  W19  1  0.90727260  0.50000000  0.29881740  1
