# generated using pymatgen
data_HfTaTiNbMoC5
_symmetry_space_group_name_H-M   'P 1'
_cell_length_a   7.22444500
_cell_length_b   4.62980300
_cell_length_c   7.21963200
_cell_angle_alpha   90.00000000
_cell_angle_beta   90.00000000
_cell_angle_gamma   90.00000000
_symmetry_Int_Tables_number   1
_chemical_formula_structural   HfTaTiNbMoC5
_chemical_formula_sum   'Hf2 Ta2 Ti2 Nb2 Mo2 C10'
_cell_volume   241.48049774
_cell_formula_units_Z   2
loop_
 _symmetry_equiv_pos_site_id
 _symmetry_equiv_pos_as_xyz
  1  'x, y, z'
loop_
 _atom_site_type_symbol
 _atom_site_label
 _atom_site_symmetry_multiplicity
 _atom_site_fract_x
 _atom_site_fract_y
 _atom_site_fract_z
 _atom_site_occupancy
  C  C0  1  0.70205782  0.00000000  0.90452274  1
  C  C1  1  0.49349766  0.00000000  0.49878088  1
  C  C2  1  0.60181268  0.50000000  0.19515803  1
  C  C3  1  0.90481792  0.00000000  0.29570826  1
  C  C4  1  0.99610543  0.50000000  0.00335310  1
  C  C5  1  0.29531486  0.00000000  0.09966863  1
  C  C6  1  0.39927206  0.50000000  0.80386795  1
  C  C7  1  0.80509291  0.50000000  0.60114122  1
  C  C8  1  0.10733450  0.00000000  0.69909685  1
  C  C9  1  0.19640383  0.50000000  0.39896226  1
  Hf  Hf10  1  0.50144885  0.50000000  0.49962092  1
  Hf  Hf11  1  0.80874822  0.00000000  0.60079437  1
  Mo  Mo12  1  0.39102117  0.00000000  0.78287610  1
  Mo  Mo13  1  0.10833837  0.50000000  0.68280989  1
  Nb  Nb14  1  0.28863442  0.50000000  0.10800443  1
  Nb  Nb15  1  0.58936305  0.00000000  0.19957145  1
  Ta  Ta16  1  0.70634473  0.50000000  0.90562919  1
  Ta  Ta17  1  0.00465552  0.00000000  0.01230164  1
  Ti  Ti18  1  0.19836576  0.00000000  0.40270596  1
  Ti  Ti19  1  0.90137025  0.50000000  0.30542608  1
