# generated using pymatgen
data_HfTaTiNbWC5
_symmetry_space_group_name_H-M   'P 1'
_cell_length_a   6.96357900
_cell_length_b   4.37395800
_cell_length_c   6.96609100
_cell_angle_alpha   90.00000000
_cell_angle_beta   90.00000000
_cell_angle_gamma   90.00000000
_symmetry_Int_Tables_number   1
_chemical_formula_structural   HfTaTiNbWC5
_chemical_formula_sum   'Hf2 Ta2 Ti2 Nb2 W2 C10'
_cell_volume   212.17600057
_cell_formula_units_Z   2
loop_
 _symmetry_equiv_pos_site_id
 _symmetry_equiv_pos_as_xyz
  1  'x, y, z'
loop_
 _atom_site_type_symbol
 _atom_site_label
 _atom_site_symmetry_multiplicity
 _atom_site_fract_x
 _atom_site_fract_y
 _atom_site_fract_z
 _atom_site_occupancy
  C  C0  1  0.70419610  0.00000000  0.90783833  1
  C  C1  1  0.49726189  0.00000000  0.49904374  1
  C  C2  1  0.59987012  0.50000000  0.19796898  1
  C  C3  1  0.89496874  0.00000000  0.29169925  1
  C  C4  1  0.00264699  0.50000000  0.00776523  1
  C  C5  1  0.29807384  0.00000000  0.09712298  1
  C  C6  1  0.40474908  0.50000000  0.80472232  1
  C  C7  1  0.79604305  0.50000000  0.59949192  1
  C  C8  1  0.10333754  0.00000000  0.70301661  1
  C  C9  1  0.19730999  0.50000000  0.39243525  1
  Hf  Hf10  1  0.80072353  0.00000000  0.59835741  1
  Hf  Hf11  1  0.10166100  0.50000000  0.70450906  1
  Nb  Nb12  1  0.49612755  0.50000000  0.49266389  1
  Nb  Nb13  1  0.20163269  0.00000000  0.39313224  1
  Ta  Ta14  1  0.40022945  0.00000000  0.80425006  1
  Ta  Ta15  1  0.70312970  0.50000000  0.90472936  1
  Ti  Ti16  1  0.29710445  0.50000000  0.10049503  1
  Ti  Ti17  1  0.00549996  0.00000000  0.00492122  1
  W  W18  1  0.58781758  0.00000000  0.19703493  1
  W  W19  1  0.90761673  0.50000000  0.29880220  1
