# generated using pymatgen
data_HfTaTiNbWC5
_symmetry_space_group_name_H-M   'P 1'
_cell_length_a   6.99357900
_cell_length_b   4.40395800
_cell_length_c   6.99609100
_cell_angle_alpha   90.00000000
_cell_angle_beta   90.00000000
_cell_angle_gamma   90.00000000
_symmetry_Int_Tables_number   1
_chemical_formula_structural   HfTaTiNbWC5
_chemical_formula_sum   'Hf2 Ta2 Ti2 Nb2 W2 C10'
_cell_volume   215.47560233
_cell_formula_units_Z   2
loop_
 _symmetry_equiv_pos_site_id
 _symmetry_equiv_pos_as_xyz
  1  'x, y, z'
loop_
 _atom_site_type_symbol
 _atom_site_label
 _atom_site_symmetry_multiplicity
 _atom_site_fract_x
 _atom_site_fract_y
 _atom_site_fract_z
 _atom_site_occupancy
  C  C0  1  0.70374394  0.00000000  0.90784524  1
  C  C1  1  0.49727403  0.00000000  0.49890188  1
  C  C2  1  0.60018074  0.50000000  0.19799216  1
  C  C3  1  0.89503206  0.00000000  0.29187407  1
  C  C4  1  0.00230596  0.50000000  0.00788826  1
  C  C5  1  0.29831401  0.00000000  0.09709723  1
  C  C6  1  0.40478146  0.50000000  0.80451713  1
  C  C7  1  0.79606276  0.50000000  0.59952479  1
  C  C8  1  0.10343968  0.00000000  0.70289919  1
  C  C9  1  0.19733206  0.50000000  0.39253334  1
  Hf  Hf10  1  0.80072909  0.00000000  0.59838247  1
  Hf  Hf11  1  0.10162755  0.50000000  0.70472200  1
  Nb  Nb12  1  0.49616453  0.50000000  0.49221592  1
  Nb  Nb13  1  0.20191282  0.00000000  0.39295527  1
  Ta  Ta14  1  0.39996014  0.00000000  0.80432758  1
  Ta  Ta15  1  0.70275242  0.50000000  0.90497294  1
  Ti  Ti16  1  0.29698844  0.50000000  0.10054410  1
  Ti  Ti17  1  0.00546947  0.00000000  0.00525906  1
  W  W18  1  0.58756321  0.00000000  0.19678244  1
  W  W19  1  0.90836561  0.50000000  0.29876495  1
