# generated using pymatgen
data_HfTaTiNbWC5
_symmetry_space_group_name_H-M   'P 1'
_cell_length_a   7.06857900
_cell_length_b   4.47895800
_cell_length_c   7.07109100
_cell_angle_alpha   90.00000000
_cell_angle_beta   90.00000000
_cell_angle_gamma   90.00000000
_symmetry_Int_Tables_number   1
_chemical_formula_structural   HfTaTiNbWC5
_chemical_formula_sum   'Hf2 Ta2 Ti2 Nb2 W2 C10'
_cell_volume   223.86981093
_cell_formula_units_Z   2
loop_
 _symmetry_equiv_pos_site_id
 _symmetry_equiv_pos_as_xyz
  1  'x, y, z'
loop_
 _atom_site_type_symbol
 _atom_site_label
 _atom_site_symmetry_multiplicity
 _atom_site_fract_x
 _atom_site_fract_y
 _atom_site_fract_z
 _atom_site_occupancy
  C  C0  1  0.70246864  0.00000000  0.90789377  1
  C  C1  1  0.49730781  0.00000000  0.49848609  1
  C  C2  1  0.60090307  0.50000000  0.19801899  1
  C  C3  1  0.89528005  0.00000000  0.29230356  1
  C  C4  1  0.00144334  0.50000000  0.00827941  1
  C  C5  1  0.29891139  0.00000000  0.09702998  1
  C  C6  1  0.40483040  0.50000000  0.80405606  1
  C  C7  1  0.79611478  0.50000000  0.59959119  1
  C  C8  1  0.10371706  0.00000000  0.70262366  1
  C  C9  1  0.19741429  0.50000000  0.39274376  1
  Hf  Hf10  1  0.80074620  0.00000000  0.59835859  1
  Hf  Hf11  1  0.10150018  0.50000000  0.70537019  1
  Nb  Nb12  1  0.49625083  0.50000000  0.49096213  1
  Nb  Nb13  1  0.20269871  0.00000000  0.39249200  1
  Ta  Ta14  1  0.39920927  0.00000000  0.80453163  1
  Ta  Ta15  1  0.70163936  0.50000000  0.90570337  1
  Ti  Ti16  1  0.29675281  0.50000000  0.10067941  1
  Ti  Ti17  1  0.00549308  0.00000000  0.00625845  1
  W  W18  1  0.58670084  0.00000000  0.19599711  1
  W  W19  1  0.91061786  0.50000000  0.29862066  1
