# generated using pymatgen
data_HfTaTiNbWC5
_symmetry_space_group_name_H-M   'P 1'
_cell_length_a   7.17357900
_cell_length_b   4.58395800
_cell_length_c   7.17609100
_cell_angle_alpha   90.00000000
_cell_angle_beta   90.00000000
_cell_angle_gamma   90.00000000
_symmetry_Int_Tables_number   1
_chemical_formula_structural   HfTaTiNbWC5
_chemical_formula_sum   'Hf2 Ta2 Ti2 Nb2 W2 C10'
_cell_volume   235.97416204
_cell_formula_units_Z   2
loop_
 _symmetry_equiv_pos_site_id
 _symmetry_equiv_pos_as_xyz
  1  'x, y, z'
loop_
 _atom_site_type_symbol
 _atom_site_label
 _atom_site_symmetry_multiplicity
 _atom_site_fract_x
 _atom_site_fract_y
 _atom_site_fract_z
 _atom_site_occupancy
  C  C0  1  0.70045302  0.00000000  0.90805067  1
  C  C1  1  0.49735700  0.00000000  0.49767795  1
  C  C2  1  0.60157987  0.50000000  0.19786609  1
  C  C3  1  0.89616301  0.00000000  0.29291110  1
  C  C4  1  0.00020957  0.50000000  0.00901093  1
  C  C5  1  0.29961292  0.00000000  0.09702742  1
  C  C6  1  0.40486349  0.50000000  0.80364182  1
  C  C7  1  0.79629754  0.50000000  0.59963250  1
  C  C8  1  0.10420060  0.00000000  0.70241372  1
  C  C9  1  0.19754163  0.50000000  0.39294246  1
  Hf  Hf10  1  0.80077879  0.00000000  0.59825677  1
  Hf  Hf11  1  0.10130674  0.50000000  0.70644049  1
  Nb  Nb12  1  0.49636656  0.50000000  0.48869139  1
  Nb  Nb13  1  0.20413024  0.00000000  0.39176227  1
  Ta  Ta14  1  0.39798875  0.00000000  0.80515650  1
  Ta  Ta15  1  0.69951315  0.50000000  0.90697651  1
  Ti  Ti16  1  0.29622986  0.50000000  0.10087663  1
  Ti  Ti17  1  0.00558648  0.00000000  0.00798865  1
  W  W18  1  0.58510628  0.00000000  0.19448037  1
  W  W19  1  0.91471448  0.50000000  0.29819578  1
