# generated using pymatgen
data_HfTaTiNbWC5
_symmetry_space_group_name_H-M   'P 1'
_cell_length_a   7.14357900
_cell_length_b   4.55395800
_cell_length_c   7.14609100
_cell_angle_alpha   90.00000000
_cell_angle_beta   90.00000000
_cell_angle_gamma   90.00000000
_symmetry_Int_Tables_number   1
_chemical_formula_structural   HfTaTiNbWC5
_chemical_formula_sum   'Hf2 Ta2 Ti2 Nb2 W2 C10'
_cell_volume   232.47347910
_cell_formula_units_Z   2
loop_
 _symmetry_equiv_pos_site_id
 _symmetry_equiv_pos_as_xyz
  1  'x, y, z'
loop_
 _atom_site_type_symbol
 _atom_site_label
 _atom_site_symmetry_multiplicity
 _atom_site_fract_x
 _atom_site_fract_y
 _atom_site_fract_z
 _atom_site_occupancy
  C  C0  1  0.70113385  0.00000000  0.90796023  1
  C  C1  1  0.49734591  0.00000000  0.49796081  1
  C  C2  1  0.60148109  0.50000000  0.19794511  1
  C  C3  1  0.89585649  0.00000000  0.29272209  1
  C  C4  1  0.00052676  0.50000000  0.00871292  1
  C  C5  1  0.29938471  0.00000000  0.09707800  1
  C  C6  1  0.40484472  0.50000000  0.80373270  1
  C  C7  1  0.79619876  0.50000000  0.59972882  1
  C  C8  1  0.10405880  0.00000000  0.70248050  1
  C  C9  1  0.19748399  0.50000000  0.39287823  1
  Hf  Hf10  1  0.80075133  0.00000000  0.59834501  1
  Hf  Hf11  1  0.10136022  0.50000000  0.70599699  1
  Nb  Nb12  1  0.49630709  0.50000000  0.48951952  1
  Nb  Nb13  1  0.20376788  0.00000000  0.39192799  1
  Ta  Ta14  1  0.39835105  0.00000000  0.80504795  1
  Ta  Ta15  1  0.70025517  0.50000000  0.90647854  1
  Ti  Ti16  1  0.29634953  0.50000000  0.10080242  1
  Ti  Ti17  1  0.00546560  0.00000000  0.00740717  1
  W  W18  1  0.58583291  0.00000000  0.19498609  1
  W  W19  1  0.91324416  0.50000000  0.29828890  1
