# generated using pymatgen
data_HfTaTiNbWC5
_symmetry_space_group_name_H-M   'P 1'
_cell_length_a   7.08357900
_cell_length_b   4.49395800
_cell_length_c   7.08609100
_cell_angle_alpha   90.00000000
_cell_angle_beta   90.00000000
_cell_angle_gamma   90.00000000
_symmetry_Int_Tables_number   1
_chemical_formula_structural   HfTaTiNbWC5
_chemical_formula_sum   'Hf2 Ta2 Ti2 Nb2 W2 C10'
_cell_volume   225.57370680
_cell_formula_units_Z   2
loop_
 _symmetry_equiv_pos_site_id
 _symmetry_equiv_pos_as_xyz
  1  'x, y, z'
loop_
 _atom_site_type_symbol
 _atom_site_label
 _atom_site_symmetry_multiplicity
 _atom_site_fract_x
 _atom_site_fract_y
 _atom_site_fract_z
 _atom_site_occupancy
  C  C0  1  0.70233079  0.00000000  0.90787443  1
  C  C1  1  0.49731629  0.00000000  0.49841654  1
  C  C2  1  0.60101081  0.50000000  0.19799342  1
  C  C3  1  0.89543782  0.00000000  0.29239166  1
  C  C4  1  0.00123423  0.50000000  0.00826111  1
  C  C5  1  0.29898091  0.00000000  0.09713148  1
  C  C6  1  0.40482937  0.50000000  0.80397810  1
  C  C7  1  0.79609339  0.50000000  0.59973801  1
  C  C8  1  0.10380510  0.00000000  0.70262769  1
  C  C9  1  0.19736358  0.50000000  0.39274672  1
  Hf  Hf10  1  0.80073707  0.00000000  0.59841805  1
  Hf  Hf11  1  0.10147523  0.50000000  0.70532132  1
  Nb  Nb12  1  0.49618998  0.50000000  0.49083495  1
  Nb  Nb13  1  0.20300958  0.00000000  0.39237317  1
  Ta  Ta14  1  0.39907290  0.00000000  0.80473521  1
  Ta  Ta15  1  0.70145739  0.50000000  0.90568993  1
  Ti  Ti16  1  0.29658382  0.50000000  0.10069328  1
  Ti  Ti17  1  0.00543123  0.00000000  0.00642715  1
  W  W18  1  0.58684185  0.00000000  0.19584767  1
  W  W19  1  0.91079865  0.50000000  0.29850013  1
