# generated using pymatgen
data_Al8V15C8
_symmetry_space_group_name_H-M   'P 1'
_cell_length_a   5.81483971
_cell_length_b   5.81483971
_cell_length_c   13.07305156
_cell_angle_alpha   90.00000000
_cell_angle_beta   90.00000000
_cell_angle_gamma   120.00000003
_symmetry_Int_Tables_number   1
_chemical_formula_structural   Al8V15C8
_chemical_formula_sum   'Al8 V15 C8'
_cell_volume   382.80984749
_cell_formula_units_Z   1
loop_
 _symmetry_equiv_pos_site_id
 _symmetry_equiv_pos_as_xyz
  1  'x, y, z'
loop_
 _atom_site_type_symbol
 _atom_site_label
 _atom_site_symmetry_multiplicity
 _atom_site_fract_x
 _atom_site_fract_y
 _atom_site_fract_z
 _atom_site_occupancy
  Al  Al0  1  0.32972198  0.17027803  0.25275013  1
  Al  Al1  1  0.16666667  0.33333334  0.74946108  1
  Al  Al2  1  0.32972198  0.65944393  0.25275013  1
  Al  Al3  1  0.16893098  0.83446549  0.74915795  1
  Al  Al4  1  0.84055608  0.17027803  0.25275013  1
  Al  Al5  1  0.66553452  0.33106903  0.74915795  1
  Al  Al6  1  0.83333334  0.66666667  0.25232948  1
  Al  Al7  1  0.66553452  0.83446549  0.74915795  1
  V  V8  1  0.33305769  0.16694232  0.91460851  1
  V  V9  1  0.16666667  0.33333334  0.08645440  1
  V  V10  1  0.33061414  0.16938587  0.58175641  1
  V  V11  1  0.33305769  0.66611538  0.91460851  1
  V  V12  1  0.16726317  0.83363159  0.08552750  1
  V  V13  1  0.16170933  0.83085467  0.41696599  1
  V  V14  1  0.33061414  0.66122827  0.58175641  1
  V  V15  1  0.83388463  0.16694232  0.91460851  1
  V  V16  1  0.66636842  0.33273684  0.08552750  1
  V  V17  1  0.66914534  0.33829068  0.41696599  1
  V  V18  1  0.83877174  0.16938587  0.58175641  1
  V  V19  1  0.83333334  0.66666667  0.91411937  1
  V  V20  1  0.66636842  0.83363159  0.08552750  1
  V  V21  1  0.66914534  0.83085467  0.41696599  1
  V  V22  1  0.83333334  0.66666667  0.58871524  1
  C  C23  1  0.00009133  0.00018265  0.00056706  1
  C  C24  1  0.99939468  0.99878934  0.49757009  1
  C  C25  1  0.00009133  0.49990867  0.00056706  1
  C  C26  1  0.99939468  0.50060532  0.49757009  1
  C  C27  1  0.50000000  0.00000000  -0.00011566  1
  C  C28  1  0.50000000  0.00000000  0.49789617  1
  C  C29  1  0.49981735  0.49990867  0.00056706  1
  C  C30  1  0.50121066  0.50060532  0.49757009  1
