# generated using pymatgen
data_HfTaTiNbWC5
_symmetry_space_group_name_H-M   'P 1'
_cell_length_a   7.21857900
_cell_length_b   4.62895800
_cell_length_c   7.22109100
_cell_angle_alpha   90.00000000
_cell_angle_beta   90.00000000
_cell_angle_gamma   90.00000000
_symmetry_Int_Tables_number   1
_chemical_formula_structural   HfTaTiNbWC5
_chemical_formula_sum   'Hf2 Ta2 Ti2 Nb2 W2 C10'
_cell_volume   241.28913808
_cell_formula_units_Z   2
loop_
 _symmetry_equiv_pos_site_id
 _symmetry_equiv_pos_as_xyz
  1  'x, y, z'
loop_
 _atom_site_type_symbol
 _atom_site_label
 _atom_site_symmetry_multiplicity
 _atom_site_fract_x
 _atom_site_fract_y
 _atom_site_fract_z
 _atom_site_occupancy
  C  C0  1  0.69928556  0.00000000  0.90819047  1
  C  C1  1  0.49740717  0.00000000  0.49718436  1
  C  C2  1  0.60160898  0.50000000  0.19770786  1
  C  C3  1  0.89683742  0.00000000  0.29318738  1
  C  C4  1  0.99967790  0.50000000  0.00954669  1
  C  C5  1  0.29987015  0.00000000  0.09694759  1
  C  C6  1  0.40484093  0.50000000  0.80357088  1
  C  C7  1  0.79652552  0.50000000  0.59945420  1
  C  C8  1  0.10444100  0.00000000  0.70232944  1
  C  C9  1  0.19768579  0.50000000  0.39304210  1
  Hf  Hf10  1  0.80084046  0.00000000  0.59802943  1
  Hf  Hf11  1  0.10115918  0.50000000  0.70719554  1
  Nb  Nb12  1  0.49640172  0.50000000  0.48729123  1
  Nb  Nb13  1  0.20484349  0.00000000  0.39154458  1
  Ta  Ta14  1  0.39732309  0.00000000  0.80539385  1
  Ta  Ta15  1  0.69816882  0.50000000  0.90780712  1
  Ti  Ti16  1  0.29607136  0.50000000  0.10094057  1
  Ti  Ti17  1  0.00588653  0.00000000  0.00903139  1
  W  W18  1  0.58382633  0.00000000  0.19353031  1
  W  W19  1  0.91729858  0.50000000  0.29807500  1
