# generated using pymatgen
data_Al8V15C8
_symmetry_space_group_name_H-M   'P 1'
_cell_length_a   5.81498336
_cell_length_b   5.81498336
_cell_length_c   13.07363924
_cell_angle_alpha   90.00000000
_cell_angle_beta   90.00000000
_cell_angle_gamma   120.00000001
_symmetry_Int_Tables_number   1
_chemical_formula_structural   Al8V15C8
_chemical_formula_sum   'Al8 V15 C8'
_cell_volume   382.84597078
_cell_formula_units_Z   1
loop_
 _symmetry_equiv_pos_site_id
 _symmetry_equiv_pos_as_xyz
  1  'x, y, z'
loop_
 _atom_site_type_symbol
 _atom_site_label
 _atom_site_symmetry_multiplicity
 _atom_site_fract_x
 _atom_site_fract_y
 _atom_site_fract_z
 _atom_site_occupancy
  Al  Al0  1  0.33446401  0.16892801  0.24915891  1
  Al  Al1  1  0.15944544  0.32972272  0.75275012  1
  Al  Al2  1  0.33446401  0.66553600  0.24915891  1
  Al  Al3  1  0.16666667  0.83333334  0.75232960  1
  Al  Al4  1  0.83333334  0.16666667  0.24946249  1
  Al  Al5  1  0.67027729  0.32972272  0.75275012  1
  Al  Al6  1  0.83107200  0.66553600  0.24915891  1
  Al  Al7  1  0.67027729  0.84055457  0.75275012  1
  V  V8  1  0.33085439  0.16170878  0.91696666  1
  V  V9  1  0.16122499  0.33061250  0.08174850  1
  V  V10  1  0.16611295  0.33305648  0.41461367  1
  V  V11  1  0.33363281  0.16726559  0.58552611  1
  V  V12  1  0.33085439  0.66914562  0.91696666  1
  V  V13  1  0.16666667  0.83333334  0.08871201  1
  V  V14  1  0.16666667  0.83333334  0.41412734  1
  V  V15  1  0.33363281  0.66636720  0.58552611  1
  V  V16  1  0.66938751  0.33061250  0.08174850  1
  V  V17  1  0.66694353  0.33305648  0.41461367  1
  V  V18  1  0.83333334  0.16666667  0.58645380  1
  V  V19  1  0.83829123  0.66914562  0.91696666  1
  V  V20  1  0.66938751  0.83877502  0.08174850  1
  V  V21  1  0.66694353  0.83388706  0.41461367  1
  V  V22  1  0.83273442  0.66636720  0.58552611  1
  C  C23  1  0.00060903  0.99939097  0.99756985  1
  C  C24  1  -0.00009246  0.00009246  0.50056991  1
  C  C25  1  0.00060903  0.50121808  0.99756985  1
  C  C26  1  -0.00009246  0.49981506  0.50056991  1
  C  C27  1  0.49878192  0.99939097  0.99756985  1
  C  C28  1  0.50018494  0.00009246  0.50056991  1
  C  C29  1  0.50000000  0.50000000  0.99789020  1
  C  C30  1  0.50000000  0.50000000  0.49988443  1
