# generated using pymatgen
data_HfTaTiNbWC5
_symmetry_space_group_name_H-M   'P 1'
_cell_length_a   7.23357900
_cell_length_b   4.64395800
_cell_length_c   7.23609100
_cell_angle_alpha   90.00000000
_cell_angle_beta   90.00000000
_cell_angle_gamma   90.00000000
_symmetry_Int_Tables_number   1
_chemical_formula_structural   HfTaTiNbWC5
_chemical_formula_sum   'Hf2 Ta2 Ti2 Nb2 W2 C10'
_cell_volume   243.07793152
_cell_formula_units_Z   2
loop_
 _symmetry_equiv_pos_site_id
 _symmetry_equiv_pos_as_xyz
  1  'x, y, z'
loop_
 _atom_site_type_symbol
 _atom_site_label
 _atom_site_symmetry_multiplicity
 _atom_site_fract_x
 _atom_site_fract_y
 _atom_site_fract_z
 _atom_site_occupancy
  C  C0  1  0.69881792  0.00000000  0.90828260  1
  C  C1  1  0.49743358  0.00000000  0.49700368  1
  C  C2  1  0.60150774  0.50000000  0.19762209  1
  C  C3  1  0.89713380  0.00000000  0.29331192  1
  C  C4  1  0.99952530  0.50000000  0.00977145  1
  C  C5  1  0.29995969  0.00000000  0.09688658  1
  C  C6  1  0.40484928  0.50000000  0.80353909  1
  C  C7  1  0.79664511  0.50000000  0.59936692  1
  C  C8  1  0.10453973  0.00000000  0.70226621  1
  C  C9  1  0.19774541  0.50000000  0.39308539  1
  Hf  Hf10  1  0.80089638  0.00000000  0.59791353  1
  Hf  Hf11  1  0.10109660  0.50000000  0.70749587  1
  Nb  Nb12  1  0.49638805  0.50000000  0.48676089  1
  Nb  Nb13  1  0.20505666  0.00000000  0.39155429  1
  Ta  Ta14  1  0.39711208  0.00000000  0.80534114  1
  Ta  Ta15  1  0.69766022  0.50000000  0.90814165  1
  Ti  Ti16  1  0.29602811  0.50000000  0.10093974  1
  Ti  Ti17  1  0.00612309  0.00000000  0.00946860  1
  W  W18  1  0.58319349  0.00000000  0.19317238  1
  W  W19  1  0.91828777  0.50000000  0.29807599  1
