# generated using pymatgen
data_Al8V15C8
_symmetry_space_group_name_H-M   'P 1'
_cell_length_a   5.81487802
_cell_length_b   5.81487802
_cell_length_c   13.07323314
_cell_angle_alpha   90.00000000
_cell_angle_beta   90.00000000
_cell_angle_gamma   119.99999998
_symmetry_Int_Tables_number   1
_chemical_formula_structural   Al8V15C8
_chemical_formula_sum   'Al8 V15 C8'
_cell_volume   382.82020900
_cell_formula_units_Z   1
loop_
 _symmetry_equiv_pos_site_id
 _symmetry_equiv_pos_as_xyz
  1  'x, y, z'
loop_
 _atom_site_type_symbol
 _atom_site_label
 _atom_site_symmetry_multiplicity
 _atom_site_fract_x
 _atom_site_fract_y
 _atom_site_fract_z
 _atom_site_occupancy
  Al  Al0  1  0.33446524  0.16553477  0.25084186  1
  Al  Al1  1  0.16666667  0.33333334  0.74767091  1
  Al  Al2  1  0.33446524  0.66893047  0.25084186  1
  Al  Al3  1  0.15944439  0.82972221  0.74725021  1
  Al  Al4  1  0.83106954  0.16553477  0.25084186  1
  Al  Al5  1  0.67027780  0.34055562  0.74725021  1
  Al  Al6  1  0.83333334  0.66666667  0.25053866  1
  Al  Al7  1  0.67027780  0.82972221  0.74725021  1
  V  V8  1  0.33363204  0.16636797  0.91447340  1
  V  V9  1  0.16666667  0.33333334  0.08587904  1
  V  V10  1  0.16666667  0.33333334  0.41128494  1
  V  V11  1  0.33085447  0.16914554  0.58303316  1
  V  V12  1  0.33363204  0.66726408  0.91447340  1
  V  V13  1  0.16611479  0.83305741  0.08539065  1
  V  V14  1  0.16122770  0.83061387  0.41824477  1
  V  V15  1  0.33085447  0.66170892  0.58303316  1
  V  V16  1  0.83273593  0.16636797  0.91447340  1
  V  V17  1  0.66694260  0.33388522  0.08539065  1
  V  V18  1  0.66938614  0.33877231  0.41824477  1
  V  V19  1  0.83829109  0.16914554  0.58303316  1
  V  V20  1  0.83333334  0.66666667  0.91354648  1
  V  V21  1  0.66694260  0.83305741  0.08539065  1
  V  V22  1  0.66938614  0.83061387  0.41824477  1
  C  C23  1  -0.00009161  -0.00018321  0.99943262  1
  C  C24  1  0.00060606  0.00121212  0.50242921  1
  C  C25  1  -0.00009161  0.50009161  0.99943262  1
  C  C26  1  0.00060606  0.49939394  0.50242921  1
  C  C27  1  0.50000000  -0.00000000  0.00011641  1
  C  C28  1  0.50000000  -0.00000000  0.50210495  1
  C  C29  1  0.50018321  0.50009161  0.99943262  1
  C  C30  1  0.49878788  0.49939394  0.50242921  1
