# generated using pymatgen
data_Al8V15C8
_symmetry_space_group_name_H-M   'P 1'
_cell_length_a   5.81500213
_cell_length_b   5.81500212
_cell_length_c   13.07354897
_cell_angle_alpha   90.00000000
_cell_angle_beta   90.00000000
_cell_angle_gamma   119.99999999
_symmetry_Int_Tables_number   1
_chemical_formula_structural   Al8V15C8
_chemical_formula_sum   'Al8 V15 C8'
_cell_volume   382.84579847
_cell_formula_units_Z   1
loop_
 _symmetry_equiv_pos_site_id
 _symmetry_equiv_pos_as_xyz
  1  'x, y, z'
loop_
 _atom_site_type_symbol
 _atom_site_label
 _atom_site_symmetry_multiplicity
 _atom_site_fract_x
 _atom_site_fract_y
 _atom_site_fract_z
 _atom_site_occupancy
  Al  Al0  1  0.33333334  0.16666667  0.25232906  1
  Al  Al1  1  0.16553444  0.33446557  0.74915852  1
  Al  Al2  1  0.34055277  0.67027639  0.25274812  1
  Al  Al3  1  0.16553444  0.83106888  0.74915852  1
  Al  Al4  1  0.82972362  0.15944724  0.25274812  1
  Al  Al5  1  0.66893113  0.33446557  0.74915852  1
  Al  Al6  1  0.82972362  0.67027639  0.25274812  1
  Al  Al7  1  0.66666667  0.83333334  0.74946162  1
  V  V8  1  0.33333334  0.16666667  0.91412224  1
  V  V9  1  0.16636828  0.33363173  0.08552308  1
  V  V10  1  0.16914467  0.33085534  0.41697032  1
  V  V11  1  0.33333334  0.16666667  0.58871650  1
  V  V12  1  0.33388590  0.66694295  0.91461041  1
  V  V13  1  0.16636828  0.83273654  0.08552308  1
  V  V14  1  0.16914467  0.83828933  0.41697032  1
  V  V15  1  0.33877421  0.66938711  0.58175339  1
  V  V16  1  0.83305706  0.16611411  0.91461041  1
  V  V17  1  0.66726347  0.33363173  0.08552308  1
  V  V18  1  0.66171068  0.33085534  0.41697032  1
  V  V19  1  0.83061290  0.16122580  0.58175339  1
  V  V20  1  0.83305706  0.66694295  0.91461041  1
  V  V21  1  0.66666667  0.83333334  0.08645018  1
  V  V22  1  0.83061290  0.66938711  0.58175339  1
  C  C23  1  -0.00018407  -0.00009204  0.00056636  1
  C  C24  1  0.00121587  0.00060794  0.49757465  1
  C  C25  1  0.00000000  0.50000000  -0.00011767  1
  C  C26  1  0.00000000  0.50000000  0.49789459  1
  C  C27  1  0.50009204  -0.00009204  0.00056636  1
  C  C28  1  0.49939206  0.00060794  0.49757465  1
  C  C29  1  0.50009204  0.50018407  0.00056636  1
  C  C30  1  0.49939206  0.49878413  0.49757465  1
