# generated using pymatgen
data_Ti7NiC4
_symmetry_space_group_name_H-M   'P 1'
_cell_length_a   10.31187811
_cell_length_b   10.36540701
_cell_length_c   6.79175121
_cell_angle_alpha   105.58900684
_cell_angle_beta   105.16576194
_cell_angle_gamma   108.62316804
_symmetry_Int_Tables_number   1
_chemical_formula_structural   Ti7NiC4
_chemical_formula_sum   'Ti28 Ni4 C16'
_cell_volume   612.75328267
_cell_formula_units_Z   4
loop_
 _symmetry_equiv_pos_site_id
 _symmetry_equiv_pos_as_xyz
  1  'x, y, z'
loop_
 _atom_site_type_symbol
 _atom_site_label
 _atom_site_symmetry_multiplicity
 _atom_site_fract_x
 _atom_site_fract_y
 _atom_site_fract_z
 _atom_site_occupancy
  C  C0  1  0.44835981  0.95322484  0.27095464  1
  C  C1  1  0.31212974  0.31117212  0.74549154  1
  C  C2  1  0.43934366  0.43808350  0.24789983  1
  C  C3  1  0.38339708  0.11898716  0.98249828  1
  C  C4  1  0.49596708  0.75576060  0.50304055  1
  C  C5  1  0.62192103  0.88499382  0.00008874  1
  C  C6  1  0.55356632  0.56716130  0.75305451  1
  C  C7  1  0.69227213  0.68710668  0.25149123  1
  C  C8  1  0.63466811  0.37822432  0.99311752  1
  C  C9  1  0.81700948  0.81636402  0.75218759  1
  C  C10  1  0.94045292  0.93847465  0.25687451  1
  C  C11  1  0.75147172  0.48930671  0.53550120  1
  C  C12  1  0.93215665  0.42912672  0.24960792  1
  C  C13  1  0.00391884  0.74452111  0.49891066  1
  C  C14  1  0.11955678  0.37551002  0.99374624  1
  C  C15  1  0.18643749  0.18463616  0.24438976  1
  Ni  Ni16  1  0.50636423  0.00571098  0.03281854  1
  Ni  Ni17  1  0.63291443  0.12076276  0.49120427  1
  Ni  Ni18  1  0.66378245  0.43488827  0.74299803  1
  Ni  Ni19  1  0.81345686  0.55362106  0.26501300  1
  Ti  Ti20  1  0.32269414  0.06931237  0.23219813  1
  Ti  Ti21  1  0.44259580  0.19417860  0.75333521  1
  Ti  Ti22  1  0.24566032  0.75589273  0.01052371  1
  Ti  Ti23  1  0.38281477  0.88580391  0.49591354  1
  Ti  Ti24  1  0.31265331  0.56323657  0.24360206  1
  Ti  Ti25  1  0.44018216  0.69979249  0.75236463  1
  Ti  Ti26  1  0.25496186  0.25567572  0.00320725  1
  Ti  Ti27  1  0.37140460  0.37644098  0.49756725  1
  Ti  Ti28  1  0.56442867  0.82010335  0.25572118  1
  Ti  Ti29  1  0.68559123  0.93692514  0.75223901  1
  Ti  Ti30  1  0.50848101  0.49860230  0.99919108  1
  Ti  Ti31  1  0.62363697  0.62390077  0.50332573  1
  Ti  Ti32  1  0.56534245  0.31694749  0.24397417  1
  Ti  Ti33  1  0.80587652  0.05750941  0.26001215  1
  Ti  Ti34  1  0.93045175  0.18878728  0.74018468  1
  Ti  Ti35  1  0.74438619  0.75455126  0.00242539  1
  Ti  Ti36  1  0.87683295  0.86163251  0.49013767  1
  Ti  Ti37  1  0.93481279  0.68356110  0.73751436  1
  Ti  Ti38  1  0.75169523  0.25576911  0.98494436  1
  Ti  Ti39  1  0.85884293  0.36124982  0.49129811  1
  Ti  Ti40  1  0.99904978  0.99601421  0.00884868  1
  Ti  Ti41  1  0.12888451  0.12782250  0.48973343  1
  Ti  Ti42  1  0.06936882  0.81265214  0.26472705  1
  Ti  Ti43  1  0.19749769  0.92878269  0.75014952  1
  Ti  Ti44  1  0.98974378  0.49400924  0.99592040  1
  Ti  Ti45  1  0.11813124  0.61518038  0.49534606  1
  Ti  Ti46  1  0.05644472  0.30641603  0.22943940  1
  Ti  Ti47  1  0.18088697  0.43411309  0.75526721  1
