# generated using pymatgen
data_Ti15CoN16
_symmetry_space_group_name_H-M   'P 1'
_cell_length_a   5.99927605
_cell_length_b   5.99927605
_cell_length_c   8.48520219
_cell_angle_alpha   90.00000000
_cell_angle_beta   90.00000000
_cell_angle_gamma   90.00000000
_symmetry_Int_Tables_number   1
_chemical_formula_structural   Ti15CoN16
_chemical_formula_sum   'Ti15 Co1 N16'
_cell_volume   305.39356894
_cell_formula_units_Z   1
loop_
 _symmetry_equiv_pos_site_id
 _symmetry_equiv_pos_as_xyz
  1  'x, y, z'
loop_
 _atom_site_type_symbol
 _atom_site_label
 _atom_site_symmetry_multiplicity
 _atom_site_fract_x
 _atom_site_fract_y
 _atom_site_fract_z
 _atom_site_occupancy
  Co  Co0  1  0.25000000  0.75000000  0.75000000  1
  N  N1  1  0.74999959  0.75001247  0.49920330  1
  N  N2  1  0.75000065  0.24999914  0.50297406  1
  N  N3  1  0.25000512  0.75000636  0.50097735  1
  N  N4  1  0.25001228  0.24999982  0.49924335  1
  N  N5  1  0.49934183  0.50065139  0.24999950  1
  N  N6  1  0.49925758  0.99923203  0.24999837  1
  N  N7  1  0.75000041  0.74998753  0.00079670  1
  N  N8  1  0.74999935  0.25000086  0.99702594  1
  N  N9  1  0.00074242  0.50076797  0.25000163  1
  N  N10  1  0.00065817  0.99934861  0.25000050  1
  N  N11  1  0.24999488  0.74999364  -0.00097735  1
  N  N12  1  0.24998772  0.25000018  0.00075665  1
  N  N13  1  0.50289221  0.49710625  0.75000058  1
  N  N14  1  0.50293105  0.00296018  0.74999983  1
  N  N15  1  0.99706895  0.49703982  0.75000017  1
  N  N16  1  0.99710779  0.00289375  0.74999942  1
  Ti  Ti17  1  0.75000000  0.25000000  0.75000000  1
  Ti  Ti18  1  0.75000000  0.75000000  0.75000000  1
  Ti  Ti19  1  0.25000000  0.25000000  0.75000000  1
  Ti  Ti20  1  0.49922709  0.99922931  0.50236135  1
  Ti  Ti21  1  0.49921423  0.50078502  0.50220755  1
  Ti  Ti22  1  0.75000000  0.25000000  0.25000000  1
  Ti  Ti23  1  0.75000000  0.75000000  0.25000000  1
  Ti  Ti24  1  0.00078854  0.99921805  0.50220817  1
  Ti  Ti25  1  0.00075753  0.50075533  0.50236650  1
  Ti  Ti26  1  0.25000000  0.25000000  0.25000000  1
  Ti  Ti27  1  0.25000000  0.75000000  0.25000000  1
  Ti  Ti28  1  0.49924247  0.99924467  0.99763350  1
  Ti  Ti29  1  0.49921146  0.50078195  0.99779183  1
  Ti  Ti30  1  0.00078577  0.99921498  0.99779245  1
  Ti  Ti31  1  0.00077291  0.50077069  0.99763865  1
