# generated using pymatgen
data_Ti11CoN12
_symmetry_space_group_name_H-M   'P 1'
_cell_length_a   5.19895141
_cell_length_b   5.99878162
_cell_length_c   7.35036042
_cell_angle_alpha   90.00000000
_cell_angle_beta   90.09488539
_cell_angle_gamma   90.00000000
_symmetry_Int_Tables_number   1
_chemical_formula_structural   Ti11CoN12
_chemical_formula_sum   'Ti11 Co1 N12'
_cell_volume   229.23812627
_cell_formula_units_Z   1
loop_
 _symmetry_equiv_pos_site_id
 _symmetry_equiv_pos_as_xyz
  1  'x, y, z'
loop_
 _atom_site_type_symbol
 _atom_site_label
 _atom_site_symmetry_multiplicity
 _atom_site_fract_x
 _atom_site_fract_y
 _atom_site_fract_z
 _atom_site_occupancy
  Ti  Ti0  1  0.50139436  0.25032780  0.00486792  1
  Ti  Ti1  1  0.32246046  -0.00002199  0.67173335  1
  Ti  Ti2  1  0.16665021  0.74662274  0.33331496  1
  Ti  Ti3  1  0.50147511  0.74965112  0.00482639  1
  Ti  Ti4  1  0.34425104  0.49999673  0.67064592  1
  Ti  Ti5  1  0.01087285  0.00002199  0.99493334  1
  Ti  Ti6  1  0.83193895  0.74967213  0.66179877  1
  Ti  Ti7  1  0.98908227  0.50000321  0.99602071  1
  Ti  Ti8  1  0.16668311  0.25337719  0.33335166  1
  Ti  Ti9  1  0.83185820  0.25034887  0.66184030  1
  Ti  Ti10  1  0.66666663  0.00000000  0.33333331  1
  Co  Co11  1  0.66666663  0.49999997  0.33333331  1
  N  N12  1  0.16669118  0.25265920  0.83331976  1
  N  N13  1  0.49581373  0.24506626  0.50245823  1
  N  N14  1  0.33331966  -0.00001923  0.16853481  1
  N  N15  1  0.16664212  0.74734079  0.83334686  1
  N  N16  1  0.49581758  0.75495161  0.50248327  1
  N  N17  1  0.32633738  0.49998910  0.16377909  1
  N  N18  1  0.83751570  0.24504832  0.16418336  1
  N  N19  1  0.66666669  0.00000000  0.83333331  1
  N  N20  1  0.00001365  0.00001923  0.49813185  1
  N  N21  1  0.83751955  0.75493367  0.16420840  1
  N  N22  1  0.66666669  0.49999997  0.83333331  1
  N  N23  1  0.00699593  0.50001084  0.50288757  1
