# generated using pymatgen
data_Ti6Ni2C7
_symmetry_space_group_name_H-M   'P 1'
_cell_length_a   6.06705652
_cell_length_b   6.79333272
_cell_length_c   7.96241073
_cell_angle_alpha   86.03489799
_cell_angle_beta   78.42960559
_cell_angle_gamma   76.40353438
_symmetry_Int_Tables_number   1
_chemical_formula_structural   Ti6Ni2C7
_chemical_formula_sum   'Ti12 Ni4 C14'
_cell_volume   312.41272089
_cell_formula_units_Z   2
loop_
 _symmetry_equiv_pos_site_id
 _symmetry_equiv_pos_as_xyz
  1  'x, y, z'
loop_
 _atom_site_type_symbol
 _atom_site_label
 _atom_site_symmetry_multiplicity
 _atom_site_fract_x
 _atom_site_fract_y
 _atom_site_fract_z
 _atom_site_occupancy
  C  C0  1  0.85781630  0.17418575  0.43014731  1
  C  C1  1  0.34619532  0.17940848  0.42903501  1
  C  C2  1  0.73773166  0.94037984  0.17572837  1
  C  C3  1  0.20385430  0.95315462  0.22370276  1
  C  C4  1  0.02779201  0.57662138  0.31872917  1
  C  C5  1  0.52795994  0.56905885  0.31530230  1
  C  C6  1  0.91057004  0.31833201  0.06276181  1
  C  C7  1  0.40081570  0.31551535  0.06561109  1
  C  C8  1  0.78366185  0.05350741  0.80551982  1
  C  C9  1  0.27657180  0.05722624  0.81397044  1
  C  C10  1  0.65574217  0.80532238  0.56610937  1
  C  C11  1  0.58902189  0.69275680  0.93866333  1
  C  C12  1  0.97089703  0.42860749  0.68568886  1
  C  C13  1  0.46170948  0.43964327  0.68826386  1
  Ni  Ni14  1  0.45209558  0.88461134  0.36858379  1
  Ni  Ni15  1  0.92508745  0.88186044  0.36286315  1
  Ni  Ni16  1  0.12521685  0.25409581  0.24186664  1
  Ni  Ni17  1  0.98522650  0.02482044  0.97880793  1
  Ti  Ti18  1  0.30798243  0.63975124  0.14744399  1
  Ti  Ti19  1  0.80640149  0.62808963  0.13798280  1
  Ti  Ti20  1  0.64235587  0.24301433  0.24571471  1
  Ti  Ti21  1  0.49408000  0.00116071  0.01029504  1
  Ti  Ti22  1  0.38683204  0.74902621  0.75143407  1
  Ti  Ti23  1  0.85904124  0.74670040  0.74974586  1
  Ti  Ti24  1  0.25411612  0.47789035  0.49663561  1
  Ti  Ti25  1  0.75198569  0.49653935  0.49838109  1
  Ti  Ti26  1  0.68288545  0.37375729  0.87870693  1
  Ti  Ti27  1  0.19097943  0.35848820  0.87469524  1
  Ti  Ti28  1  0.57135371  0.11334236  0.61873502  1
  Ti  Ti29  1  0.06402066  0.12313199  0.61887464  1
