# generated using pymatgen
data_Ti3NiC2
_symmetry_space_group_name_H-M   'P 1'
_cell_length_a   6.29428127
_cell_length_b   6.29428127
_cell_length_c   9.78088606
_cell_angle_alpha   125.04348465
_cell_angle_beta   125.04348468
_cell_angle_gamma   28.12390229
_symmetry_Int_Tables_number   1
_chemical_formula_structural   Ti3NiC2
_chemical_formula_sum   'Ti6 Ni2 C4'
_cell_volume   147.22052796
_cell_formula_units_Z   2
loop_
 _symmetry_equiv_pos_site_id
 _symmetry_equiv_pos_as_xyz
  1  'x, y, z'
loop_
 _atom_site_type_symbol
 _atom_site_label
 _atom_site_symmetry_multiplicity
 _atom_site_fract_x
 _atom_site_fract_y
 _atom_site_fract_z
 _atom_site_occupancy
  C  C0  1  0.05530856  0.05530856  0.68780738  1
  C  C1  1  0.80806651  0.80806651  0.94419884  1
  C  C2  1  0.94834273  0.94834273  0.32249867  1
  C  C3  1  0.56621742  0.56621742  0.17826534  1
  Ni  Ni4  1  0.00545763  0.00545763  0.02142255  1
  Ni  Ni5  1  0.12048600  0.12048600  0.34670932  1
  Ti  Ti6  1  0.26602325  0.26602325  0.77709164  1
  Ti  Ti7  1  0.84477226  0.84477226  0.59366176  1
  Ti  Ti8  1  0.38412345  0.38412345  0.13651789  1
  Ti  Ti9  1  0.52084680  0.52084680  0.50614697  1
  Ti  Ti10  1  0.60038206  0.60038206  0.85577468  1
  Ti  Ti11  1  0.75497334  0.75497334  0.25490496  1
