# generated using pymatgen
data_Ti2Ni2C3
_symmetry_space_group_name_H-M   'P 1'
_cell_length_a   6.48204847
_cell_length_b   6.48204847
_cell_length_c   9.49005017
_cell_angle_alpha   125.93934586
_cell_angle_beta   125.93934586
_cell_angle_gamma   27.14585556
_symmetry_Int_Tables_number   1
_chemical_formula_structural   Ti2Ni2C3
_chemical_formula_sum   'Ti4 Ni4 C6'
_cell_volume   145.02363852
_cell_formula_units_Z   2
loop_
 _symmetry_equiv_pos_site_id
 _symmetry_equiv_pos_as_xyz
  1  'x, y, z'
loop_
 _atom_site_type_symbol
 _atom_site_label
 _atom_site_symmetry_multiplicity
 _atom_site_fract_x
 _atom_site_fract_y
 _atom_site_fract_z
 _atom_site_occupancy
  C  C0  1  0.06707723  0.06707723  0.69685304  1
  C  C1  1  0.69459053  0.69459053  0.56150690  1
  C  C2  1  0.16770494  0.16770494  0.05715294  1
  C  C3  1  0.31399938  0.31399938  0.41985420  1
  C  C4  1  0.82348426  0.82348426  0.94685900  1
  C  C5  1  0.93534371  0.93534371  0.31895632  1
  Ni  Ni6  1  0.50746879  0.50746879  0.49758360  1
  Ni  Ni7  1  0.00608378  0.00608378  0.01450939  1
  Ni  Ni8  1  0.63198005  0.63198005  0.88731005  1
  Ni  Ni9  1  0.73896825  0.73896825  0.23684111  1
  Ti  Ti10  1  0.24895237  0.24895237  0.75792210  1
  Ti  Ti11  1  0.87588820  0.87588820  0.59558893  1
  Ti  Ti12  1  0.36141229  0.36141229  0.13007386  1
  Ti  Ti13  1  0.12704622  0.12704622  0.37898859  1
