# generated using pymatgen
data_Ti7NiC6
_symmetry_space_group_name_H-M   'P 1'
_cell_length_a   9.52870155
_cell_length_b   9.55938514
_cell_length_c   9.61047859
_cell_angle_alpha   113.05640569
_cell_angle_beta   112.85727772
_cell_angle_gamma   53.55358960
_symmetry_Int_Tables_number   1
_chemical_formula_structural   Ti7NiC6
_chemical_formula_sum   'Ti28 Ni4 C24'
_cell_volume   633.42307900
_cell_formula_units_Z   4
loop_
 _symmetry_equiv_pos_site_id
 _symmetry_equiv_pos_as_xyz
  1  'x, y, z'
loop_
 _atom_site_type_symbol
 _atom_site_label
 _atom_site_symmetry_multiplicity
 _atom_site_fract_x
 _atom_site_fract_y
 _atom_site_fract_z
 _atom_site_occupancy
  C  C0  1  0.30742595  0.81588721  0.74884631  1
  C  C1  1  0.37421206  0.87535646  0.50094911  1
  C  C2  1  0.43860527  0.93462512  0.24939312  1
  C  C3  1  0.32027505  0.30914314  0.25077562  1
  C  C4  1  0.50554684  0.99565177  0.99792070  1
  C  C5  1  0.37620513  0.37420361  0.99936227  1
  C  C6  1  0.44653629  0.43729441  0.74927770  1
  C  C7  1  0.62830730  0.12940366  0.50062424  1
  C  C8  1  0.82127827  0.81361391  0.24363391  1
  C  C9  1  0.56372695  0.55668142  0.25039190  1
  C  C10  1  0.92820377  0.94339859  0.75688263  1
  C  C11  1  0.63577249  0.61249643  0.99738985  1
  C  C12  1  0.68825879  0.67695627  0.74362157  1
  C  C13  1  0.99326986  0.00809518  0.49904056  1
  C  C14  1  0.04757089  0.06588311  0.24466046  1
  C  C15  1  0.74942484  0.74751154  0.50029280  1
  C  C16  1  0.93981139  0.43473850  0.25326607  1
  C  C17  1  0.11542635  0.12718866  0.99845345  1
  C  C18  1  0.99926737  0.50096297  0.00360136  1
  C  C19  1  0.18405116  0.19010075  0.74984672  1
  C  C20  1  0.05909155  0.56309301  0.75077429  1
  C  C21  1  0.25223483  0.25097318  0.50103784  1
  C  C22  1  0.12761347  0.62545417  0.50017174  1
  C  C23  1  0.18371322  0.68803427  0.24649870  1
  Ni  Ni24  1  0.54723520  0.58445172  0.76499741  1
  Ni  Ni25  1  0.88858678  0.38605474  0.02124111  1
  Ni  Ni26  1  0.06714103  0.56366190  0.25433555  1
  Ni  Ni27  1  0.95294666  0.92852242  0.25874478  1
  Ti  Ti28  1  0.37479949  0.36929267  0.49815226  1
  Ti  Ti29  1  0.41900520  0.44836626  0.23724020  1
  Ti  Ti30  1  0.51150121  0.49197657  0.99722531  1
  Ti  Ti31  1  0.38025265  0.87465048  0.00190830  1
  Ti  Ti32  1  0.43577270  0.92793419  0.74931905  1
  Ti  Ti33  1  0.61763276  0.63431390  0.50071296  1
  Ti  Ti34  1  0.49855765  0.99816658  0.48891308  1
  Ti  Ti35  1  0.69350505  0.68124069  0.24815815  1
  Ti  Ti36  1  0.56389677  0.05551492  0.24846574  1
  Ti  Ti37  1  0.74775377  0.74190683  0.00013207  1
  Ti  Ti38  1  0.93818205  0.44079212  0.76513965  1
  Ti  Ti39  1  0.61748581  0.12626569  0.00114449  1
  Ti  Ti40  1  0.81665557  0.79973258  0.73949126  1
  Ti  Ti41  1  0.00489112  0.50378759  0.49425186  1
  Ti  Ti42  1  0.69066165  0.19673636  0.74301869  1
  Ti  Ti43  1  0.87276205  0.87858088  0.49612082  1
  Ti  Ti44  1  0.75714689  0.24129266  0.49733125  1
  Ti  Ti45  1  0.12333969  0.61595200  0.00458473  1
  Ti  Ti46  1  0.81327551  0.31467361  0.24511557  1
  Ti  Ti47  1  0.99337407  0.01200701  0.00158224  1
  Ti  Ti48  1  0.18634235  0.68504441  0.73922865  1
  Ti  Ti49  1  0.07114855  0.05447339  0.75474266  1
  Ti  Ti50  1  0.23516101  0.76228196  0.49873285  1
  Ti  Ti51  1  0.13365549  0.12039525  0.50391638  1
  Ti  Ti52  1  0.31022866  0.81532843  0.25824049  1
  Ti  Ti53  1  0.18364968  0.18690740  0.24918380  1
  Ti  Ti54  1  0.25047752  0.24648624  0.00048445  1
  Ti  Ti55  1  0.30464629  0.32396122  0.75143125  1
