# generated using pymatgen
data_HfTaTiNbVC5
_symmetry_space_group_name_H-M   'P 1'
_cell_length_a   7.01370300
_cell_length_b   4.44773800
_cell_length_c   7.01494000
_cell_angle_alpha   90.00000000
_cell_angle_beta   90.00000000
_cell_angle_gamma   90.00000000
_symmetry_Int_Tables_number   1
_chemical_formula_structural   HfTaTiNbVC5
_chemical_formula_sum   'Hf2 Ta2 Ti2 Nb2 V2 C10'
_cell_volume   218.83184847
_cell_formula_units_Z   2
loop_
 _symmetry_equiv_pos_site_id
 _symmetry_equiv_pos_as_xyz
  1  'x, y, z'
loop_
 _atom_site_type_symbol
 _atom_site_label
 _atom_site_symmetry_multiplicity
 _atom_site_fract_x
 _atom_site_fract_y
 _atom_site_fract_z
 _atom_site_occupancy
  C  C0  1  0.69729652  0.00000000  0.90158949  1
  C  C1  1  0.49121334  0.00000000  0.50684694  1
  C  C2  1  0.60259381  0.50000000  0.19701407  1
  C  C3  1  0.90597292  0.00000000  0.29579467  1
  C  C4  1  0.99840438  0.50000000  0.99767355  1
  C  C5  1  0.29758418  0.00000000  0.09648686  1
  C  C6  1  0.39384111  0.50000000  0.80357242  1
  C  C7  1  0.80825953  0.50000000  0.60047194  1
  C  C8  1  0.11302801  0.00000000  0.70040867  1
  C  C9  1  0.19241109  0.50000000  0.40472773  1
  Hf  Hf10  1  0.49771510  0.50000000  0.50203918  1
  Hf  Hf11  1  0.80877959  0.00000000  0.60084971  1
  V  V12  1  0.39241737  0.00000000  0.78898210  1
  V  V13  1  0.10877337  0.50000000  0.69674350  1
  Nb  Nb14  1  0.29506411  0.50000000  0.10226585  1
  Nb  Nb15  1  0.59374865  0.00000000  0.19878749  1
  Ta  Ta16  1  0.69857502  0.50000000  0.90028296  1
  Ta  Ta17  1  0.00708188  0.00000000  0.00015531  1
  Ti  Ti18  1  0.19668333  0.00000000  0.40397698  1
  Ti  Ti19  1  0.90055672  0.50000000  0.30133056  1
