# generated using pymatgen
data_HfTaTiNbVC5
_symmetry_space_group_name_H-M   'P 1'
_cell_length_a   7.01456800
_cell_length_b   4.44860300
_cell_length_c   7.01580500
_cell_angle_alpha   90.00000000
_cell_angle_beta   90.00000000
_cell_angle_gamma   90.00000000
_symmetry_Int_Tables_number   1
_chemical_formula_structural   HfTaTiNbVC5
_chemical_formula_sum   'Hf2 Ta2 Ti2 Nb2 V2 C10'
_cell_volume   218.92839321
_cell_formula_units_Z   2
loop_
 _symmetry_equiv_pos_site_id
 _symmetry_equiv_pos_as_xyz
  1  'x, y, z'
loop_
 _atom_site_type_symbol
 _atom_site_label
 _atom_site_symmetry_multiplicity
 _atom_site_fract_x
 _atom_site_fract_y
 _atom_site_fract_z
 _atom_site_occupancy
  C  C0  1  0.69730868  0.00000000  0.90159691  1
  C  C1  1  0.49121042  0.00000000  0.50684935  1
  C  C2  1  0.60258742  0.50000000  0.19700548  1
  C  C3  1  0.90597208  0.00000000  0.29579443  1
  C  C4  1  0.99840705  0.50000000  0.99768792  1
  C  C5  1  0.29758317  0.00000000  0.09649172  1
  C  C6  1  0.39385436  0.50000000  0.80357125  1
  C  C7  1  0.80824737  0.50000000  0.60047690  1
  C  C8  1  0.11302337  0.00000000  0.70041541  1
  C  C9  1  0.19241555  0.50000000  0.40472160  1
  Hf  Hf10  1  0.49772133  0.50000000  0.50203590  1
  Hf  Hf11  1  0.80877541  0.00000000  0.60085692  1
  V  V12  1  0.39240260  0.00000000  0.78894288  1
  V  V13  1  0.10878229  0.50000000  0.69673643  1
  Nb  Nb14  1  0.29506035  0.50000000  0.10226248  1
  Nb  Nb15  1  0.59373254  0.00000000  0.19877307  1
  Ta  Ta16  1  0.69857990  0.50000000  0.90028488  1
  Ta  Ta17  1  0.00709562  0.00000000  0.00017945  1
  Ti  Ti18  1  0.19668421  0.00000000  0.40398116  1
  Ti  Ti19  1  0.90055632  0.50000000  0.30133586  1
