# generated using pymatgen
data_HfTaTiNbVC5
_symmetry_space_group_name_H-M   'P 1'
_cell_length_a   7.01658300
_cell_length_b   4.45061800
_cell_length_c   7.01782000
_cell_angle_alpha   90.00000000
_cell_angle_beta   90.00000000
_cell_angle_gamma   90.00000000
_symmetry_Int_Tables_number   1
_chemical_formula_structural   HfTaTiNbVC5
_chemical_formula_sum   'Hf2 Ta2 Ti2 Nb2 V2 C10'
_cell_volume   219.15339948
_cell_formula_units_Z   2
loop_
 _symmetry_equiv_pos_site_id
 _symmetry_equiv_pos_as_xyz
  1  'x, y, z'
loop_
 _atom_site_type_symbol
 _atom_site_label
 _atom_site_symmetry_multiplicity
 _atom_site_fract_x
 _atom_site_fract_y
 _atom_site_fract_z
 _atom_site_occupancy
  C  C0  1  0.69728262  0.00000000  0.90161310  1
  C  C1  1  0.49134418  0.00000000  0.50680554  1
  C  C2  1  0.60257424  0.50000000  0.19702857  1
  C  C3  1  0.90604822  0.00000000  0.29581296  1
  C  C4  1  0.99840865  0.50000000  0.99764819  1
  C  C5  1  0.29751272  0.00000000  0.09647618  1
  C  C6  1  0.39390036  0.50000000  0.80354189  1
  C  C7  1  0.80824449  0.50000000  0.60044621  1
  C  C8  1  0.11310529  0.00000000  0.70042741  1
  C  C9  1  0.19240773  0.50000000  0.40474902  1
  Hf  Hf10  1  0.49769285  0.50000000  0.50214187  1
  Hf  Hf11  1  0.80871669  0.00000000  0.60095169  1
  V  V12  1  0.39245798  0.00000000  0.78920323  1
  V  V13  1  0.10876263  0.50000000  0.69685571  1
  Nb  Nb14  1  0.29510023  0.50000000  0.10211821  1
  Nb  Nb15  1  0.59366033  0.00000000  0.19866279  1
  Ta  Ta16  1  0.69853633  0.50000000  0.90021394  1
  Ta  Ta17  1  0.00707586  0.00000000  0.00004205  1
  Ti  Ti18  1  0.19666666  0.00000000  0.40392169  1
  Ti  Ti19  1  0.90050196  0.50000000  0.30133976  1
