# generated using pymatgen
data_HfTaTiNbVC5
_symmetry_space_group_name_H-M   'P 1'
_cell_length_a   7.01802300
_cell_length_b   4.45205800
_cell_length_c   7.01926000
_cell_angle_alpha   90.00000000
_cell_angle_beta   90.00000000
_cell_angle_gamma   90.00000000
_symmetry_Int_Tables_number   1
_chemical_formula_structural   HfTaTiNbVC5
_chemical_formula_sum   'Hf2 Ta2 Ti2 Nb2 V2 C10'
_cell_volume   219.31428996
_cell_formula_units_Z   2
loop_
 _symmetry_equiv_pos_site_id
 _symmetry_equiv_pos_as_xyz
  1  'x, y, z'
loop_
 _atom_site_type_symbol
 _atom_site_label
 _atom_site_symmetry_multiplicity
 _atom_site_fract_x
 _atom_site_fract_y
 _atom_site_fract_z
 _atom_site_occupancy
  C  C0  1  0.69730165  0.00000000  0.90161671  1
  C  C1  1  0.49134556  0.00000000  0.50680146  1
  C  C2  1  0.60256433  0.50000000  0.19701505  1
  C  C3  1  0.90605089  0.00000000  0.29581212  1
  C  C4  1  0.99840710  0.50000000  0.99765734  1
  C  C5  1  0.29750606  0.00000000  0.09647808  1
  C  C6  1  0.39390839  0.50000000  0.80353959  1
  C  C7  1  0.80823563  0.50000000  0.60045307  1
  C  C8  1  0.11309870  0.00000000  0.70044015  1
  C  C9  1  0.19241956  0.50000000  0.40474632  1
  Hf  Hf10  1  0.49769331  0.50000000  0.50213317  1
  Hf  Hf11  1  0.80871687  0.00000000  0.60096864  1
  V  V12  1  0.39243153  0.00000000  0.78916779  1
  V  V13  1  0.10877166  0.50000000  0.69684966  1
  Nb  Nb14  1  0.29509229  0.50000000  0.10210791  1
  Nb  Nb15  1  0.59363957  0.00000000  0.19863893  1
  Ta  Ta16  1  0.69854979  0.50000000  0.90021838  1
  Ta  Ta17  1  0.00709176  0.00000000  0.00006510  1
  Ti  Ti18  1  0.19666867  0.00000000  0.40393587  1
  Ti  Ti19  1  0.90050672  0.50000000  0.30135465  1
