# generated using pymatgen
data_HfTaTiNbVC5
_symmetry_space_group_name_H-M   'P 1'
_cell_length_a   7.03151300
_cell_length_b   4.46555800
_cell_length_c   7.03275800
_cell_angle_alpha   90.00000000
_cell_angle_beta   90.00000000
_cell_angle_gamma   90.00000000
_symmetry_Int_Tables_number   1
_chemical_formula_structural   HfTaTiNbVC5
_chemical_formula_sum   'Hf2 Ta2 Ti2 Nb2 V2 C10'
_cell_volume   220.82599296
_cell_formula_units_Z   2
loop_
 _symmetry_equiv_pos_site_id
 _symmetry_equiv_pos_as_xyz
  1  'x, y, z'
loop_
 _atom_site_type_symbol
 _atom_site_label
 _atom_site_symmetry_multiplicity
 _atom_site_fract_x
 _atom_site_fract_y
 _atom_site_fract_z
 _atom_site_occupancy
  C  C0  1  0.69751970  0.00000000  0.90172053  1
  C  C1  1  0.49119417  0.00000000  0.50677401  1
  C  C2  1  0.60248377  0.50000000  0.19685792  1
  C  C3  1  0.90596272  0.00000000  0.29583483  1
  C  C4  1  0.99840223  0.50000000  0.99783037  1
  C  C5  1  0.29752056  0.00000000  0.09645003  1
  C  C6  1  0.39397683  0.50000000  0.80351031  1
  C  C7  1  0.80811003  0.50000000  0.60058552  1
  C  C8  1  0.11296651  0.00000000  0.70054627  1
  C  C9  1  0.19249824  0.50000000  0.40467249  1
  Hf  Hf10  1  0.49772217  0.50000000  0.50194592  1
  Hf  Hf11  1  0.80877715  0.00000000  0.60099145  1
  V  V12  1  0.39213230  0.00000000  0.78852193  1
  V  V13  1  0.10893215  0.50000000  0.69659776  1
  Nb  Nb14  1  0.29498285  0.50000000  0.10211369  1
  Nb  Nb15  1  0.59358178  0.00000000  0.19852554  1
  Ta  Ta16  1  0.69876858  0.50000000  0.90039951  1
  Ta  Ta17  1  0.00725582  0.00000000  0.00049139  1
  Ti  Ti18  1  0.19665040  0.00000000  0.40408429  1
  Ti  Ti19  1  0.90056206  0.50000000  0.30154625  1
