# generated using pymatgen
data_HfTaTiNbVC5
_symmetry_space_group_name_H-M   'P 1'
_cell_length_a   7.02635800
_cell_length_b   4.46039300
_cell_length_c   7.02759500
_cell_angle_alpha   90.00000000
_cell_angle_beta   90.00000000
_cell_angle_gamma   90.00000000
_symmetry_Int_Tables_number   1
_chemical_formula_structural   HfTaTiNbVC5
_chemical_formula_sum   'Hf2 Ta2 Ti2 Nb2 V2 C10'
_cell_volume   220.24706235
_cell_formula_units_Z   2
loop_
 _symmetry_equiv_pos_site_id
 _symmetry_equiv_pos_as_xyz
  1  'x, y, z'
loop_
 _atom_site_type_symbol
 _atom_site_label
 _atom_site_symmetry_multiplicity
 _atom_site_fract_x
 _atom_site_fract_y
 _atom_site_fract_z
 _atom_site_occupancy
  C  C0  1  0.69746120  0.00000000  0.90168230  1
  C  C1  1  0.49119797  0.00000000  0.50679935  1
  C  C2  1  0.60250939  0.50000000  0.19690066  1
  C  C3  1  0.90596365  0.00000000  0.29581349  1
  C  C4  1  0.99840909  0.50000000  0.99777480  1
  C  C5  1  0.29753791  0.00000000  0.09646625  1
  C  C6  1  0.39393693  0.50000000  0.80353429  1
  C  C7  1  0.80814816  0.50000000  0.60055598  1
  C  C8  1  0.11298844  0.00000000  0.70050518  1
  C  C9  1  0.19247408  0.50000000  0.40469007  1
  Hf  Hf10  1  0.49771709  0.50000000  0.50197957  1
  Hf  Hf11  1  0.80878148  0.00000000  0.60094483  1
  V  V12  1  0.39221468  0.00000000  0.78864877  1
  V  V13  1  0.10889047  0.50000000  0.69665306  1
  Nb  Nb14  1  0.29500422  0.50000000  0.10216589  1
  Nb  Nb15  1  0.59362165  0.00000000  0.19860453  1
  Ta  Ta16  1  0.69870997  0.50000000  0.90036356  1
  Ta  Ta17  1  0.00721846  0.00000000  0.00039136  1
  Ti  Ti18  1  0.19665582  0.00000000  0.40406223  1
  Ti  Ti19  1  0.90055938  0.50000000  0.30146381  1
