# generated using pymatgen
data_HfTaTiNbVC5
_symmetry_space_group_name_H-M   'P 1'
_cell_length_a   7.01946300
_cell_length_b   4.45349200
_cell_length_c   7.02069100
_cell_angle_alpha   90.00000000
_cell_angle_beta   90.00000000
_cell_angle_gamma   90.00000000
_symmetry_Int_Tables_number   1
_chemical_formula_structural   HfTaTiNbVC5
_chemical_formula_sum   'Hf2 Ta2 Ti2 Nb2 V2 C10'
_cell_volume   219.47468009
_cell_formula_units_Z   2
loop_
 _symmetry_equiv_pos_site_id
 _symmetry_equiv_pos_as_xyz
  1  'x, y, z'
loop_
 _atom_site_type_symbol
 _atom_site_label
 _atom_site_symmetry_multiplicity
 _atom_site_fract_x
 _atom_site_fract_y
 _atom_site_fract_z
 _atom_site_occupancy
  C  C0  1  0.69732029  0.00000000  0.90162670  1
  C  C1  1  0.49134440  0.00000000  0.50679807  1
  C  C2  1  0.60255261  0.50000000  0.19700285  1
  C  C3  1  0.90605067  0.00000000  0.29581202  1
  C  C4  1  0.99840756  0.50000000  0.99766748  1
  C  C5  1  0.29750207  0.00000000  0.09647801  1
  C  C6  1  0.39391959  0.50000000  0.80353646  1
  C  C7  1  0.80822400  0.50000000  0.60046221  1
  C  C8  1  0.11309441  0.00000000  0.70045059  1
  C  C9  1  0.19242624  0.50000000  0.40474330  1
  Hf  Hf10  1  0.49769402  0.50000000  0.50212934  1
  Hf  Hf11  1  0.80871822  0.00000000  0.60097972  1
  V  V12  1  0.39240431  0.00000000  0.78912683  1
  V  V13  1  0.10878230  0.50000000  0.69683987  1
  Nb  Nb14  1  0.29508594  0.50000000  0.10209773  1
  Nb  Nb15  1  0.59362581  0.00000000  0.19861740  1
  Ta  Ta16  1  0.69856400  0.50000000  0.90022791  1
  Ta  Ta17  1  0.00711059  0.00000000  0.00009008  1
  Ti  Ti18  1  0.19666523  0.00000000  0.40394570  1
  Ti  Ti19  1  0.90050779  0.50000000  0.30136771  1
