# generated using pymatgen
data_HfTaTiNbVC5
_symmetry_space_group_name_H-M   'P 1'
_cell_length_a   7.02979900
_cell_length_b   4.46383400
_cell_length_c   7.03103600
_cell_angle_alpha   90.00000000
_cell_angle_beta   90.00000000
_cell_angle_gamma   90.00000000
_symmetry_Int_Tables_number   1
_chemical_formula_structural   HfTaTiNbVC5
_chemical_formula_sum   'Hf2 Ta2 Ti2 Nb2 V2 C10'
_cell_volume   220.63289573
_cell_formula_units_Z   2
loop_
 _symmetry_equiv_pos_site_id
 _symmetry_equiv_pos_as_xyz
  1  'x, y, z'
loop_
 _atom_site_type_symbol
 _atom_site_label
 _atom_site_symmetry_multiplicity
 _atom_site_fract_x
 _atom_site_fract_y
 _atom_site_fract_z
 _atom_site_occupancy
  C  C0  1  0.69749951  0.00000000  0.90170781  1
  C  C1  1  0.49119447  0.00000000  0.50678176  1
  C  C2  1  0.60249454  0.50000000  0.19687387  1
  C  C3  1  0.90596462  0.00000000  0.29583232  1
  C  C4  1  0.99840173  0.50000000  0.99781634  1
  C  C5  1  0.29752671  0.00000000  0.09645571  1
  C  C6  1  0.39396329  0.50000000  0.80351579  1
  C  C7  1  0.80812645  0.50000000  0.60057395  1
  C  C8  1  0.11296928  0.00000000  0.70053276  1
  C  C9  1  0.19248979  0.50000000  0.40467697  1
  Hf  Hf10  1  0.49772319  0.50000000  0.50195300  1
  Hf  Hf11  1  0.80878185  0.00000000  0.60097881  1
  V  V12  1  0.39215634  0.00000000  0.78856210  1
  V  V13  1  0.10891576  0.50000000  0.69660943  1
  Nb  Nb14  1  0.29498986  0.50000000  0.10212965  1
  Nb  Nb15  1  0.59359876  0.00000000  0.19854952  1
  Ta  Ta16  1  0.69875195  0.50000000  0.90038815  1
  Ta  Ta17  1  0.00723860  0.00000000  0.00045941  1
  Ti  Ti18  1  0.19665109  0.00000000  0.40407387  1
  Ti  Ti19  1  0.90056226  0.50000000  0.30152882  1
