# generated using pymatgen
data_HfTaTiNbVC5
_symmetry_space_group_name_H-M   'P 1'
_cell_length_a   7.02291100
_cell_length_b   4.45694600
_cell_length_c   7.02414800
_cell_angle_alpha   90.00000000
_cell_angle_beta   90.00000000
_cell_angle_gamma   90.00000000
_symmetry_Int_Tables_number   1
_chemical_formula_structural   HfTaTiNbVC5
_chemical_formula_sum   'Hf2 Ta2 Ti2 Nb2 V2 C10'
_cell_volume   219.86099578
_cell_formula_units_Z   2
loop_
 _symmetry_equiv_pos_site_id
 _symmetry_equiv_pos_as_xyz
  1  'x, y, z'
loop_
 _atom_site_type_symbol
 _atom_site_label
 _atom_site_symmetry_multiplicity
 _atom_site_fract_x
 _atom_site_fract_y
 _atom_site_fract_z
 _atom_site_occupancy
  C  C0  1  0.69741279  0.00000000  0.90165735  1
  C  C1  1  0.49120415  0.00000000  0.50680854  1
  C  C2  1  0.60253426  0.50000000  0.19693257  1
  C  C3  1  0.90596566  0.00000000  0.29580883  1
  C  C4  1  0.99840462  0.50000000  0.99774700  1
  C  C5  1  0.29755009  0.00000000  0.09646951  1
  C  C6  1  0.39391120  0.50000000  0.80354378  1
  C  C7  1  0.80817795  0.50000000  0.60053470  1
  C  C8  1  0.11299949  0.00000000  0.70047970  1
  C  C9  1  0.19245735  0.50000000  0.40469903  1
  Hf  Hf10  1  0.49771532  0.50000000  0.50199628  1
  Hf  Hf11  1  0.80878208  0.00000000  0.60091878  1
  V  V12  1  0.39226950  0.00000000  0.78874589  1
  V  V13  1  0.10885910  0.50000000  0.69667684  1
  Nb  Nb14  1  0.29502138  0.50000000  0.10219263  1
  Nb  Nb15  1  0.59365679  0.00000000  0.19865442  1
  Ta  Ta16  1  0.69867539  0.50000000  0.90034140  1
  Ta  Ta17  1  0.00718090  0.00000000  0.00032796  1
  Ti  Ti18  1  0.19666336  0.00000000  0.40403624  1
  Ti  Ti19  1  0.90055866  0.50000000  0.30142857  1
