# generated using pymatgen
data_HfTaTiNbVC5
_symmetry_space_group_name_H-M   'P 1'
_cell_length_a   7.02434700
_cell_length_b   4.45838200
_cell_length_c   7.02558400
_cell_angle_alpha   90.00000000
_cell_angle_beta   90.00000000
_cell_angle_gamma   90.00000000
_symmetry_Int_Tables_number   1
_chemical_formula_structural   HfTaTiNbVC5
_chemical_formula_sum   'Hf2 Ta2 Ti2 Nb2 V2 C10'
_cell_volume   220.02177540
_cell_formula_units_Z   2
loop_
 _symmetry_equiv_pos_site_id
 _symmetry_equiv_pos_as_xyz
  1  'x, y, z'
loop_
 _atom_site_type_symbol
 _atom_site_label
 _atom_site_symmetry_multiplicity
 _atom_site_fract_x
 _atom_site_fract_y
 _atom_site_fract_z
 _atom_site_occupancy
  C  C0  1  0.69743341  0.00000000  0.90166806  1
  C  C1  1  0.49120124  0.00000000  0.50680450  1
  C  C2  1  0.60252449  0.50000000  0.19691997  1
  C  C3  1  0.90596470  0.00000000  0.29581156  1
  C  C4  1  0.99840603  0.50000000  0.99775843  1
  C  C5  1  0.29754487  0.00000000  0.09646777  1
  C  C6  1  0.39392224  0.50000000  0.80353940  1
  C  C7  1  0.80816646  0.50000000  0.60054394  1
  C  C8  1  0.11299420  0.00000000  0.70049035  1
  C  C9  1  0.19246373  0.50000000  0.40469569  1
  Hf  Hf10  1  0.49771629  0.50000000  0.50198932  1
  Hf  Hf11  1  0.80878289  0.00000000  0.60092985  1
  V  V12  1  0.39224493  0.00000000  0.78870354  1
  V  V13  1  0.10887126  0.50000000  0.69666557  1
  Nb  Nb14  1  0.29501406  0.50000000  0.10218232  1
  Nb  Nb15  1  0.59364262  0.00000000  0.19863291  1
  Ta  Ta16  1  0.69869084  0.50000000  0.90035127  1
  Ta  Ta17  1  0.00719656  0.00000000  0.00035447  1
  Ti  Ti18  1  0.19666035  0.00000000  0.40404686  1
  Ti  Ti19  1  0.90055888  0.50000000  0.30144422  1
