# generated using pymatgen
data_HfTaTiNbVC5
_symmetry_space_group_name_H-M   'P 1'
_cell_length_a   7.03524000
_cell_length_b   4.46927500
_cell_length_c   7.03647700
_cell_angle_alpha   90.00000000
_cell_angle_beta   90.00000000
_cell_angle_gamma   90.00000000
_symmetry_Int_Tables_number   1
_chemical_formula_structural   HfTaTiNbVC5
_chemical_formula_sum   'Hf2 Ta2 Ti2 Nb2 V2 C10'
_cell_volume   221.24388099
_cell_formula_units_Z   2
loop_
 _symmetry_equiv_pos_site_id
 _symmetry_equiv_pos_as_xyz
  1  'x, y, z'
loop_
 _atom_site_type_symbol
 _atom_site_label
 _atom_site_symmetry_multiplicity
 _atom_site_fract_x
 _atom_site_fract_y
 _atom_site_fract_z
 _atom_site_occupancy
  C  C0  1  0.69757200  0.00000000  0.90175358  1
  C  C1  1  0.49118929  0.00000000  0.50676300  1
  C  C2  1  0.60246014  0.50000000  0.19682386  1
  C  C3  1  0.90596262  0.00000000  0.29584232  1
  C  C4  1  0.99840496  0.50000000  0.99786429  1
  C  C5  1  0.29750747  0.00000000  0.09644378  1
  C  C6  1  0.39400642  0.50000000  0.80349909  1
  C  C7  1  0.80807759  0.50000000  0.60061038  1
  C  C8  1  0.11295068  0.00000000  0.70057434  1
  C  C9  1  0.19251539  0.50000000  0.40466513  1
  Hf  Hf10  1  0.49772751  0.50000000  0.50192899  1
  Hf  Hf11  1  0.80877721  0.00000000  0.60102418  1
  V  V12  1  0.39206233  0.00000000  0.78841296  1
  V  V13  1  0.10896472  0.50000000  0.69656126  1
  Nb  Nb14  1  0.29496710  0.50000000  0.10207783  1
  Nb  Nb15  1  0.59354064  0.00000000  0.19846994  1
  Ta  Ta16  1  0.69880959  0.50000000  0.90042527  1
  Ta  Ta17  1  0.00729694  0.00000000  0.00056543  1
  Ti  Ti18  1  0.19664390  0.00000000  0.40410749  1
  Ti  Ti19  1  0.90056354  0.50000000  0.30158686  1
