# generated using pymatgen
data_HfTaTiNbVC5
_symmetry_space_group_name_H-M   'P 1'
_cell_length_a   7.04922900
_cell_length_b   4.48326400
_cell_length_c   7.05046600
_cell_angle_alpha   90.00000000
_cell_angle_beta   90.00000000
_cell_angle_gamma   90.00000000
_symmetry_Int_Tables_number   1
_chemical_formula_structural   HfTaTiNbVC5
_chemical_formula_sum   'Hf2 Ta2 Ti2 Nb2 V2 C10'
_cell_volume   222.81978721
_cell_formula_units_Z   2
loop_
 _symmetry_equiv_pos_site_id
 _symmetry_equiv_pos_as_xyz
  1  'x, y, z'
loop_
 _atom_site_type_symbol
 _atom_site_label
 _atom_site_symmetry_multiplicity
 _atom_site_fract_x
 _atom_site_fract_y
 _atom_site_fract_z
 _atom_site_occupancy
  C  C0  1  0.69777009  0.00000000  0.90186479  1
  C  C1  1  0.49116128  0.00000000  0.50671000  1
  C  C2  1  0.60237586  0.50000000  0.19669824  1
  C  C3  1  0.90596478  0.00000000  0.29587191  1
  C  C4  1  0.99840636  0.50000000  0.99798420  1
  C  C5  1  0.29746325  0.00000000  0.09642109  1
  C  C6  1  0.39410208  0.50000000  0.80344674  1
  C  C7  1  0.80796099  0.50000000  0.60070634  1
  C  C8  1  0.11290397  0.00000000  0.70067395  1
  C  C9  1  0.19257745  0.50000000  0.40463615  1
  Hf  Hf10  1  0.49773039  0.50000000  0.50186055  1
  Hf  Hf11  1  0.80877583  0.00000000  0.60114093  1
  V  V12  1  0.39180853  0.00000000  0.78801175  1
  V  V13  1  0.10908466  0.50000000  0.69642591  1
  Nb  Nb14  1  0.29490532  0.50000000  0.10196081  1
  Nb  Nb15  1  0.59340781  0.00000000  0.19825656  1
  Ta  Ta16  1  0.69897728  0.50000000  0.90052771  1
  Ta  Ta17  1  0.00744522  0.00000000  0.00084248  1
  Ti  Ti18  1  0.19660985  0.00000000  0.40420265  1
  Ti  Ti19  1  0.90056904  0.50000000  0.30175724  1
