# generated using pymatgen
data_HfTaTiNbVC5
_symmetry_space_group_name_H-M   'P 1'
_cell_length_a   7.03924300
_cell_length_b   4.47327800
_cell_length_c   7.04048000
_cell_angle_alpha   90.00000000
_cell_angle_beta   90.00000000
_cell_angle_gamma   90.00000000
_symmetry_Int_Tables_number   1
_chemical_formula_structural   HfTaTiNbVC5
_chemical_formula_sum   'Hf2 Ta2 Ti2 Nb2 V2 C10'
_cell_volume   221.69409005
_cell_formula_units_Z   2
loop_
 _symmetry_equiv_pos_site_id
 _symmetry_equiv_pos_as_xyz
  1  'x, y, z'
loop_
 _atom_site_type_symbol
 _atom_site_label
 _atom_site_symmetry_multiplicity
 _atom_site_fract_x
 _atom_site_fract_y
 _atom_site_fract_z
 _atom_site_occupancy
  C  C0  1  0.69762816  0.00000000  0.90178431  1
  C  C1  1  0.49118184  0.00000000  0.50674987  1
  C  C2  1  0.60243543  0.50000000  0.19678852  1
  C  C3  1  0.90596272  0.00000000  0.29585153  1
  C  C4  1  0.99840565  0.50000000  0.99789841  1
  C  C5  1  0.29749427  0.00000000  0.09643925  1
  C  C6  1  0.39403417  0.50000000  0.80348470  1
  C  C7  1  0.80804403  0.50000000  0.60063778  1
  C  C8  1  0.11293747  0.00000000  0.70060344  1
  C  C9  1  0.19253223  0.50000000  0.40465566  1
  Hf  Hf10  1  0.49772765  0.50000000  0.50190933  1
  Hf  Hf11  1  0.80877481  0.00000000  0.60105683  1
  V  V12  1  0.39199208  0.00000000  0.78830060  1
  V  V13  1  0.10899949  0.50000000  0.69652591  1
  Nb  Nb14  1  0.29494931  0.50000000  0.10204314  1
  Nb  Nb15  1  0.59350186  0.00000000  0.19840870  1
  Ta  Ta16  1  0.69885735  0.50000000  0.90045230  1
  Ta  Ta17  1  0.00733837  0.00000000  0.00064055  1
  Ti  Ti18  1  0.19663649  0.00000000  0.40413323  1
  Ti  Ti19  1  0.90056663  0.50000000  0.30163594  1
