# generated using pymatgen
data_HfTaTiNbVC5
_symmetry_space_group_name_H-M   'P 1'
_cell_length_a   7.05349900
_cell_length_b   4.48753400
_cell_length_c   7.05473600
_cell_angle_alpha   90.00000000
_cell_angle_beta   90.00000000
_cell_angle_gamma   90.00000000
_symmetry_Int_Tables_number   1
_chemical_formula_structural   HfTaTiNbVC5
_chemical_formula_sum   'Hf2 Ta2 Ti2 Nb2 V2 C10'
_cell_volume   223.30226464
_cell_formula_units_Z   2
loop_
 _symmetry_equiv_pos_site_id
 _symmetry_equiv_pos_as_xyz
  1  'x, y, z'
loop_
 _atom_site_type_symbol
 _atom_site_label
 _atom_site_symmetry_multiplicity
 _atom_site_fract_x
 _atom_site_fract_y
 _atom_site_fract_z
 _atom_site_occupancy
  C  C0  1  0.69784285  0.00000000  0.90189789  1
  C  C1  1  0.49115057  0.00000000  0.50668767  1
  C  C2  1  0.60236269  0.50000000  0.19665847  1
  C  C3  1  0.90596351  0.00000000  0.29588149  1
  C  C4  1  0.99840596  0.50000000  0.99803455  1
  C  C5  1  0.29744801  0.00000000  0.09642296  1
  C  C6  1  0.39413798  0.50000000  0.80342714  1
  C  C7  1  0.80792833  0.50000000  0.60073169  1
  C  C8  1  0.11287715  0.00000000  0.70070580  1
  C  C9  1  0.19259640  0.50000000  0.40462314  1
  Hf  Hf10  1  0.49773112  0.50000000  0.50184247  1
  Hf  Hf11  1  0.80877395  0.00000000  0.60117851  1
  V  V12  1  0.39172130  0.00000000  0.78787726  1
  V  V13  1  0.10911363  0.50000000  0.69637528  1
  Nb  Nb14  1  0.29488329  0.50000000  0.10192959  1
  Nb  Nb15  1  0.59337149  0.00000000  0.19818283  1
  Ta  Ta16  1  0.69903312  0.50000000  0.90056690  1
  Ta  Ta17  1  0.00749205  0.00000000  0.00093656  1
  Ti  Ti18  1  0.19659569  0.00000000  0.40422246  1
  Ti  Ti19  1  0.90057097  0.50000000  0.30181733  1
