# generated using pymatgen
data_HfTaTiNbVC5
_symmetry_space_group_name_H-M   'P 1'
_cell_length_a   7.05841200
_cell_length_b   4.49244700
_cell_length_c   7.05964900
_cell_angle_alpha   90.00000000
_cell_angle_beta   90.00000000
_cell_angle_gamma   90.00000000
_symmetry_Int_Tables_number   1
_chemical_formula_structural   HfTaTiNbVC5
_chemical_formula_sum   'Hf2 Ta2 Ti2 Nb2 V2 C10'
_cell_volume   223.85823516
_cell_formula_units_Z   2
loop_
 _symmetry_equiv_pos_site_id
 _symmetry_equiv_pos_as_xyz
  1  'x, y, z'
loop_
 _atom_site_type_symbol
 _atom_site_label
 _atom_site_symmetry_multiplicity
 _atom_site_fract_x
 _atom_site_fract_y
 _atom_site_fract_z
 _atom_site_occupancy
  C  C0  1  0.69790876  0.00000000  0.90193706  1
  C  C1  1  0.49113155  0.00000000  0.50667721  1
  C  C2  1  0.60232707  0.50000000  0.19660842  1
  C  C3  1  0.90597106  0.00000000  0.29588759  1
  C  C4  1  0.99841083  0.50000000  0.99808072  1
  C  C5  1  0.29742971  0.00000000  0.09642342  1
  C  C6  1  0.39417263  0.50000000  0.80340910  1
  C  C7  1  0.80787596  0.50000000  0.60076737  1
  C  C8  1  0.11288360  0.00000000  0.70073595  1
  C  C9  1  0.19262023  0.50000000  0.40461259  1
  Hf  Hf10  1  0.49772549  0.50000000  0.50183144  1
  Hf  Hf11  1  0.80876328  0.00000000  0.60121664  1
  V  V12  1  0.39162898  0.00000000  0.78772304  1
  V  V13  1  0.10916453  0.50000000  0.69633306  1
  Nb  Nb14  1  0.29486558  0.50000000  0.10188412  1
  Nb  Nb15  1  0.59331439  0.00000000  0.19811293  1
  Ta  Ta16  1  0.69908444  0.50000000  0.90059933  1
  Ta  Ta17  1  0.00755275  0.00000000  0.00103303  1
  Ti  Ti18  1  0.19659376  0.00000000  0.40425702  1
  Ti  Ti19  1  0.90057543  0.50000000  0.30186991  1
