# generated using pymatgen
data_HfTaTiNbMoC5
_symmetry_space_group_name_H-M   'P 1'
_cell_length_a   7.06831800
_cell_length_b   4.47367600
_cell_length_c   7.06350500
_cell_angle_alpha   90.00000000
_cell_angle_beta   90.00000000
_cell_angle_gamma   90.00000000
_symmetry_Int_Tables_number   1
_chemical_formula_structural   HfTaTiNbMoC5
_chemical_formula_sum   'Hf2 Ta2 Ti2 Nb2 Mo2 C10'
_cell_volume   223.35766694
_cell_formula_units_Z   2
loop_
 _symmetry_equiv_pos_site_id
 _symmetry_equiv_pos_as_xyz
  1  'x, y, z'
loop_
 _atom_site_type_symbol
 _atom_site_label
 _atom_site_symmetry_multiplicity
 _atom_site_fract_x
 _atom_site_fract_y
 _atom_site_fract_z
 _atom_site_occupancy
  C  C0  1  0.70102135  0.00000000  0.90282148  1
  C  C1  1  0.49337330  0.00000000  0.49859160  1
  C  C2  1  0.60267591  0.50000000  0.19625056  1
  C  C3  1  0.90461364  0.00000000  0.29552843  1
  C  C4  1  0.99693196  0.50000000  0.00238182  1
  C  C5  1  0.29615381  0.00000000  0.10105159  1
  C  C6  1  0.39990579  0.50000000  0.80588507  1
  C  C7  1  0.80463531  0.50000000  0.59930474  1
  C  C8  1  0.10636830  0.00000000  0.69846848  1
  C  C9  1  0.19491027  0.50000000  0.39899439  1
  Hf  Hf10  1  0.49874435  0.50000000  0.50055252  1
  Hf  Hf11  1  0.80584072  0.00000000  0.59874394  1
  Mo  Mo12  1  0.39601272  0.00000000  0.79200662  1
  Mo  Mo13  1  0.10508508  0.50000000  0.69098491  1
  Nb  Nb14  1  0.29186308  0.50000000  0.10548887  1
  Nb  Nb15  1  0.59303508  0.00000000  0.19990034  1
  Ta  Ta16  1  0.70456565  0.50000000  0.90247616  1
  Ta  Ta17  1  0.00490138  0.00000000  0.00494332  1
  Ti  Ti18  1  0.19769096  0.00000000  0.40248665  1
  Ti  Ti19  1  0.90167137  0.50000000  0.30313849  1
