# generated using pymatgen
data_HfTaTiNbMoC5
_symmetry_space_group_name_H-M   'P 1'
_cell_length_a   7.07004600
_cell_length_b   4.47540400
_cell_length_c   7.06523300
_cell_angle_alpha   90.00000000
_cell_angle_beta   90.00000000
_cell_angle_gamma   90.00000000
_symmetry_Int_Tables_number   1
_chemical_formula_structural   HfTaTiNbMoC5
_chemical_formula_sum   'Hf2 Ta2 Ti2 Nb2 Mo2 C10'
_cell_volume   223.55324276
_cell_formula_units_Z   2
loop_
 _symmetry_equiv_pos_site_id
 _symmetry_equiv_pos_as_xyz
  1  'x, y, z'
loop_
 _atom_site_type_symbol
 _atom_site_label
 _atom_site_symmetry_multiplicity
 _atom_site_fract_x
 _atom_site_fract_y
 _atom_site_fract_z
 _atom_site_occupancy
  C  C0  1  0.70102939  0.00000000  0.90283070  1
  C  C1  1  0.49337866  0.00000000  0.49859199  1
  C  C2  1  0.60266410  0.50000000  0.19623819  1
  C  C3  1  0.90461338  0.00000000  0.29552423  1
  C  C4  1  0.99692862  0.50000000  0.00238050  1
  C  C5  1  0.29614644  0.00000000  0.10104035  1
  C  C6  1  0.39990496  0.50000000  0.80587792  1
  C  C7  1  0.80463480  0.50000000  0.59932053  1
  C  C8  1  0.10637331  0.00000000  0.69847970  1
  C  C9  1  0.19492020  0.50000000  0.39899612  1
  Hf  Hf10  1  0.49875521  0.50000000  0.50054755  1
  Hf  Hf11  1  0.80585464  0.00000000  0.59875345  1
  Mo  Mo12  1  0.39598671  0.00000000  0.79196585  1
  Mo  Mo13  1  0.10509930  0.50000000  0.69094899  1
  Nb  Nb14  1  0.29184170  0.50000000  0.10549262  1
  Nb  Nb15  1  0.59301019  0.00000000  0.19989053  1
  Ta  Ta16  1  0.70457932  0.50000000  0.90249402  1
  Ta  Ta17  1  0.00490688  0.00000000  0.00497957  1
  Ti  Ti18  1  0.19769610  0.00000000  0.40249421  1
  Ti  Ti19  1  0.90167612  0.50000000  0.30315296  1
