# generated using pymatgen
data_HfTaTiNbMoC5
_symmetry_space_group_name_H-M   'P 1'
_cell_length_a   7.07522300
_cell_length_b   4.48058100
_cell_length_c   7.07041000
_cell_angle_alpha   90.00000000
_cell_angle_beta   90.00000000
_cell_angle_gamma   90.00000000
_symmetry_Int_Tables_number   1
_chemical_formula_structural   HfTaTiNbMoC5
_chemical_formula_sum   'Hf2 Ta2 Ti2 Nb2 Mo2 C10'
_cell_volume   224.13984335
_cell_formula_units_Z   2
loop_
 _symmetry_equiv_pos_site_id
 _symmetry_equiv_pos_as_xyz
  1  'x, y, z'
loop_
 _atom_site_type_symbol
 _atom_site_label
 _atom_site_symmetry_multiplicity
 _atom_site_fract_x
 _atom_site_fract_y
 _atom_site_fract_z
 _atom_site_occupancy
  C  C0  1  0.70104379  0.00000000  0.90286700  1
  C  C1  1  0.49339879  0.00000000  0.49858858  1
  C  C2  1  0.60263100  0.50000000  0.19620115  1
  C  C3  1  0.90461077  0.00000000  0.29551771  1
  C  C4  1  0.99691685  0.50000000  0.00237480  1
  C  C5  1  0.29612335  0.00000000  0.10099111  1
  C  C6  1  0.39989906  0.50000000  0.80584738  1
  C  C7  1  0.80463860  0.50000000  0.59938021  1
  C  C8  1  0.10638741  0.00000000  0.69851766  1
  C  C9  1  0.19496284  0.50000000  0.39899580  1
  Hf  Hf10  1  0.49880050  0.50000000  0.50052884  1
  Hf  Hf11  1  0.80590509  0.00000000  0.59879527  1
  Mo  Mo12  1  0.39589224  0.00000000  0.79179508  1
  Mo  Mo13  1  0.10516496  0.50000000  0.69079400  1
  Nb  Nb14  1  0.29176745  0.50000000  0.10552574  1
  Nb  Nb15  1  0.59293025  0.00000000  0.19987823  1
  Ta  Ta16  1  0.70461857  0.50000000  0.90255633  1
  Ta  Ta17  1  0.00491284  0.00000000  0.00511617  1
  Ti  Ti18  1  0.19771508  0.00000000  0.40251704  1
  Ti  Ti19  1  0.90168062  0.50000000  0.30321190  1
