# generated using pymatgen
data_HfTaTiNbMoC5
_symmetry_space_group_name_H-M   'P 1'
_cell_length_a   7.07148500
_cell_length_b   4.47684300
_cell_length_c   7.06667200
_cell_angle_alpha   90.00000000
_cell_angle_beta   90.00000000
_cell_angle_gamma   90.00000000
_symmetry_Int_Tables_number   1
_chemical_formula_structural   HfTaTiNbMoC5
_chemical_formula_sum   'Hf2 Ta2 Ti2 Nb2 Mo2 C10'
_cell_volume   223.71619424
_cell_formula_units_Z   2
loop_
 _symmetry_equiv_pos_site_id
 _symmetry_equiv_pos_as_xyz
  1  'x, y, z'
loop_
 _atom_site_type_symbol
 _atom_site_label
 _atom_site_symmetry_multiplicity
 _atom_site_fract_x
 _atom_site_fract_y
 _atom_site_fract_z
 _atom_site_occupancy
  C  C0  1  0.70102698  0.00000000  0.90284605  1
  C  C1  1  0.49338749  0.00000000  0.49858986  1
  C  C2  1  0.60265646  0.50000000  0.19622921  1
  C  C3  1  0.90461162  0.00000000  0.29552547  1
  C  C4  1  0.99692367  0.50000000  0.00237716  1
  C  C5  1  0.29613982  0.00000000  0.10101802  1
  C  C6  1  0.39990208  0.50000000  0.80586519  1
  C  C7  1  0.80463897  0.50000000  0.59934445  1
  C  C8  1  0.10637619  0.00000000  0.69849194  1
  C  C9  1  0.19493870  0.50000000  0.39899198  1
  Hf  Hf10  1  0.49877427  0.50000000  0.50054111  1
  Hf  Hf11  1  0.80587260  0.00000000  0.59877188  1
  Mo  Mo12  1  0.39595243  0.00000000  0.79189615  1
  Mo  Mo13  1  0.10512956  0.50000000  0.69088312  1
  Nb  Nb14  1  0.29181680  0.50000000  0.10551120  1
  Nb  Nb15  1  0.59298601  0.00000000  0.19989598  1
  Ta  Ta16  1  0.70458861  0.50000000  0.90251578  1
  Ta  Ta17  1  0.00490321  0.00000000  0.00503028  1
  Ti  Ti18  1  0.19770382  0.00000000  0.40249985  1
  Ti  Ti19  1  0.90167075  0.50000000  0.30317532  1
