# generated using pymatgen
data_HfTaTiNbMoC5
_symmetry_space_group_name_H-M   'P 1'
_cell_length_a   7.06659000
_cell_length_b   4.47194800
_cell_length_c   7.06177700
_cell_angle_alpha   90.00000000
_cell_angle_beta   90.00000000
_cell_angle_gamma   90.00000000
_symmetry_Int_Tables_number   1
_chemical_formula_structural   HfTaTiNbMoC5
_chemical_formula_sum   'Hf2 Ta2 Ti2 Nb2 Mo2 C10'
_cell_volume   223.16220223
_cell_formula_units_Z   2
loop_
 _symmetry_equiv_pos_site_id
 _symmetry_equiv_pos_as_xyz
  1  'x, y, z'
loop_
 _atom_site_type_symbol
 _atom_site_label
 _atom_site_symmetry_multiplicity
 _atom_site_fract_x
 _atom_site_fract_y
 _atom_site_fract_z
 _atom_site_occupancy
  C  C0  1  0.70101315  0.00000000  0.90281233  1
  C  C1  1  0.49336801  0.00000000  0.49859148  1
  C  C2  1  0.60268791  0.50000000  0.19626293  1
  C  C3  1  0.90461395  0.00000000  0.29553273  1
  C  C4  1  0.99693527  0.50000000  0.00238334  1
  C  C5  1  0.29616114  0.00000000  0.10106255  1
  C  C6  1  0.39990658  0.50000000  0.80589218  1
  C  C7  1  0.80463591  0.50000000  0.59928888  1
  C  C8  1  0.10636337  0.00000000  0.69845729  1
  C  C9  1  0.19490025  0.50000000  0.39899269  1
  Hf  Hf10  1  0.49873365  0.50000000  0.50055733  1
  Hf  Hf11  1  0.80582673  0.00000000  0.59873463  1
  Mo  Mo12  1  0.39603860  0.00000000  0.79204703  1
  Mo  Mo13  1  0.10507104  0.50000000  0.69102052  1
  Nb  Nb14  1  0.29188418  0.50000000  0.10548497  1
  Nb  Nb15  1  0.59305987  0.00000000  0.19991008  1
  Ta  Ta16  1  0.70455195  0.50000000  0.90245854  1
  Ta  Ta17  1  0.00489601  0.00000000  0.00490721  1
  Ti  Ti18  1  0.19768583  0.00000000  0.40247934  1
  Ti  Ti19  1  0.90166663  0.50000000  0.30312395  1
