# generated using pymatgen
data_HfTaTiNbMoC5
_symmetry_space_group_name_H-M   'P 1'
_cell_length_a   7.06428500
_cell_length_b   4.46964300
_cell_length_c   7.05947200
_cell_angle_alpha   90.00000000
_cell_angle_beta   90.00000000
_cell_angle_gamma   90.00000000
_symmetry_Int_Tables_number   1
_chemical_formula_structural   HfTaTiNbMoC5
_chemical_formula_sum   'Hf2 Ta2 Ti2 Nb2 Mo2 C10'
_cell_volume   222.90164241
_cell_formula_units_Z   2
loop_
 _symmetry_equiv_pos_site_id
 _symmetry_equiv_pos_as_xyz
  1  'x, y, z'
loop_
 _atom_site_type_symbol
 _atom_site_label
 _atom_site_symmetry_multiplicity
 _atom_site_fract_x
 _atom_site_fract_y
 _atom_site_fract_z
 _atom_site_occupancy
  C  C0  1  0.70100233  0.00000000  0.90280017  1
  C  C1  1  0.49336110  0.00000000  0.49859096  1
  C  C2  1  0.60270351  0.50000000  0.19627917  1
  C  C3  1  0.90461479  0.00000000  0.29553856  1
  C  C4  1  0.99693982  0.50000000  0.00238558  1
  C  C5  1  0.29617089  0.00000000  0.10107752  1
  C  C6  1  0.39990728  0.50000000  0.80590149  1
  C  C7  1  0.80463663  0.50000000  0.59926809  1
  C  C8  1  0.10635706  0.00000000  0.69844257  1
  C  C9  1  0.19488698  0.50000000  0.39899056  1
  Hf  Hf10  1  0.49871971  0.50000000  0.50056394  1
  Hf  Hf11  1  0.80580842  0.00000000  0.59872210  1
  Mo  Mo12  1  0.39607399  0.00000000  0.79210012  1
  Mo  Mo13  1  0.10505147  0.50000000  0.69106637  1
  Nb  Nb14  1  0.29191183  0.50000000  0.10547993  1
  Nb  Nb15  1  0.59309218  0.00000000  0.19992314  1
  Ta  Ta16  1  0.70453401  0.50000000  0.90243509  1
  Ta  Ta17  1  0.00488823  0.00000000  0.00485946  1
  Ti  Ti18  1  0.19767896  0.00000000  0.40247014  1
  Ti  Ti19  1  0.90166084  0.50000000  0.30310503  1
