# generated using pymatgen
data_HfTaTiNbMoC5
_symmetry_space_group_name_H-M   'P 1'
_cell_length_a   7.06543600
_cell_length_b   4.47079400
_cell_length_c   7.06062300
_cell_angle_alpha   90.00000000
_cell_angle_beta   90.00000000
_cell_angle_gamma   90.00000000
_symmetry_Int_Tables_number   1
_chemical_formula_structural   HfTaTiNbMoC5
_chemical_formula_sum   'Hf2 Ta2 Ti2 Nb2 Mo2 C10'
_cell_volume   223.03172806
_cell_formula_units_Z   2
loop_
 _symmetry_equiv_pos_site_id
 _symmetry_equiv_pos_as_xyz
  1  'x, y, z'
loop_
 _atom_site_type_symbol
 _atom_site_label
 _atom_site_symmetry_multiplicity
 _atom_site_fract_x
 _atom_site_fract_y
 _atom_site_fract_z
 _atom_site_occupancy
  C  C0  1  0.70100765  0.00000000  0.90280619  1
  C  C1  1  0.49336463  0.00000000  0.49859129  1
  C  C2  1  0.60269572  0.50000000  0.19627105  1
  C  C3  1  0.90461440  0.00000000  0.29553565  1
  C  C4  1  0.99693753  0.50000000  0.00238443  1
  C  C5  1  0.29616597  0.00000000  0.10106997  1
  C  C6  1  0.39990676  0.50000000  0.80589683  1
  C  C7  1  0.80463629  0.50000000  0.59927844  1
  C  C8  1  0.10636033  0.00000000  0.69844994  1
  C  C9  1  0.19489359  0.50000000  0.39899166  1
  Hf  Hf10  1  0.49872673  0.50000000  0.50056077  1
  Hf  Hf11  1  0.80581765  0.00000000  0.59872828  1
  Mo  Mo12  1  0.39605660  0.00000000  0.79207381  1
  Mo  Mo13  1  0.10506121  0.50000000  0.69104315  1
  Nb  Nb14  1  0.29189803  0.50000000  0.10548246  1
  Nb  Nb15  1  0.59307603  0.00000000  0.19991655  1
  Ta  Ta16  1  0.70454282  0.50000000  0.90244677  1
  Ta  Ta17  1  0.00489193  0.00000000  0.00488332  1
  Ti  Ti18  1  0.19768244  0.00000000  0.40247479  1
  Ti  Ti19  1  0.90166372  0.50000000  0.30311465  1
