# generated using pymatgen
data_HfTaTiNbMoC5
_symmetry_space_group_name_H-M   'P 1'
_cell_length_a   7.07349800
_cell_length_b   4.47885600
_cell_length_c   7.06868500
_cell_angle_alpha   90.00000000
_cell_angle_beta   90.00000000
_cell_angle_gamma   90.00000000
_symmetry_Int_Tables_number   1
_chemical_formula_structural   HfTaTiNbMoC5
_chemical_formula_sum   'Hf2 Ta2 Ti2 Nb2 Mo2 C10'
_cell_volume   223.94427448
_cell_formula_units_Z   2
loop_
 _symmetry_equiv_pos_site_id
 _symmetry_equiv_pos_as_xyz
  1  'x, y, z'
loop_
 _atom_site_type_symbol
 _atom_site_label
 _atom_site_symmetry_multiplicity
 _atom_site_fract_x
 _atom_site_fract_y
 _atom_site_fract_z
 _atom_site_occupancy
  C  C0  1  0.70103546  0.00000000  0.90285777  1
  C  C1  1  0.49339281  0.00000000  0.49858809  1
  C  C2  1  0.60264348  0.50000000  0.19621472  1
  C  C3  1  0.90461169  0.00000000  0.29552240  1
  C  C4  1  0.99692005  0.50000000  0.00237592  1
  C  C5  1  0.29613123  0.00000000  0.10100314  1
  C  C6  1  0.39990078  0.50000000  0.80585486  1
  C  C7  1  0.80463847  0.50000000  0.59936355  1
  C  C8  1  0.10638105  0.00000000  0.69850566  1
  C  C9  1  0.19495173  0.50000000  0.39899392  1
  Hf  Hf10  1  0.49878871  0.50000000  0.50053491  1
  Hf  Hf11  1  0.80588981  0.00000000  0.59878476  1
  Mo  Mo12  1  0.39591862  0.00000000  0.79184230  1
  Mo  Mo13  1  0.10514726  0.50000000  0.69083658  1
  Nb  Nb14  1  0.29179111  0.50000000  0.10551647  1
  Nb  Nb15  1  0.59295664  0.00000000  0.19988609  1
  Ta  Ta16  1  0.70460567  0.50000000  0.90253788  1
  Ta  Ta17  1  0.00490877  0.00000000  0.00507672  1
  Ti  Ti18  1  0.19771056  0.00000000  0.40250976  1
  Ti  Ti19  1  0.90167612  0.50000000  0.30319447  1
