# generated using pymatgen
data_HfTaTiNbMoC5
_symmetry_space_group_name_H-M   'P 1'
_cell_length_a   7.07694800
_cell_length_b   4.48230600
_cell_length_c   7.07213500
_cell_angle_alpha   90.00000000
_cell_angle_beta   90.00000000
_cell_angle_gamma   90.00000000
_symmetry_Int_Tables_number   1
_chemical_formula_structural   HfTaTiNbMoC5
_chemical_formula_sum   'Hf2 Ta2 Ti2 Nb2 Mo2 C10'
_cell_volume   224.33552306
_cell_formula_units_Z   2
loop_
 _symmetry_equiv_pos_site_id
 _symmetry_equiv_pos_as_xyz
  1  'x, y, z'
loop_
 _atom_site_type_symbol
 _atom_site_label
 _atom_site_symmetry_multiplicity
 _atom_site_fract_x
 _atom_site_fract_y
 _atom_site_fract_z
 _atom_site_occupancy
  C  C0  1  0.70104046  0.00000000  0.90288367  1
  C  C1  1  0.49340746  0.00000000  0.49858548  1
  C  C2  1  0.60262233  0.50000000  0.19618816  1
  C  C3  1  0.90460900  0.00000000  0.29551998  1
  C  C4  1  0.99691046  0.50000000  0.00237169  1
  C  C5  1  0.29611444  0.00000000  0.10096142  1
  C  C6  1  0.39989582  0.50000000  0.80583116  1
  C  C7  1  0.80464487  0.50000000  0.59940685  1
  C  C8  1  0.10639050  0.00000000  0.69853629  1
  C  C9  1  0.19498624  0.50000000  0.39899307  1
  Hf  Hf10  1  0.49882366  0.50000000  0.50051903  1
  Hf  Hf11  1  0.80592827  0.00000000  0.59881801  1
  Mo  Mo12  1  0.39584721  0.00000000  0.79170222  1
  Mo  Mo13  1  0.10520669  0.50000000  0.69071203  1
  Nb  Nb14  1  0.29173624  0.50000000  0.10555359  1
  Nb  Nb15  1  0.59289985  0.00000000  0.19988412  1
  Ta  Ta16  1  0.70462890  0.50000000  0.90258158  1
  Ta  Ta17  1  0.00490938  0.00000000  0.00518356  1
  Ti  Ti18  1  0.19772325  0.00000000  0.40252583  1
  Ti  Ti19  1  0.90167501  0.50000000  0.30324227  1
