# generated using pymatgen
data_HfTaTiNbMoC5
_symmetry_space_group_name_H-M   'P 1'
_cell_length_a   7.08096600
_cell_length_b   4.48632400
_cell_length_c   7.07615300
_cell_angle_alpha   90.00000000
_cell_angle_beta   90.00000000
_cell_angle_gamma   90.00000000
_symmetry_Int_Tables_number   1
_chemical_formula_structural   HfTaTiNbMoC5
_chemical_formula_sum   'Hf2 Ta2 Ti2 Nb2 Mo2 C10'
_cell_volume   224.79174498
_cell_formula_units_Z   2
loop_
 _symmetry_equiv_pos_site_id
 _symmetry_equiv_pos_as_xyz
  1  'x, y, z'
loop_
 _atom_site_type_symbol
 _atom_site_label
 _atom_site_symmetry_multiplicity
 _atom_site_fract_x
 _atom_site_fract_y
 _atom_site_fract_z
 _atom_site_occupancy
  C  C0  1  0.70105719  0.00000000  0.90290865  1
  C  C1  1  0.49341944  0.00000000  0.49858071  1
  C  C2  1  0.60259523  0.50000000  0.19615489  1
  C  C3  1  0.90460931  0.00000000  0.29551429  1
  C  C4  1  0.99690078  0.50000000  0.00237441  1
  C  C5  1  0.29609649  0.00000000  0.10092860  1
  C  C6  1  0.39989533  0.50000000  0.80580845  1
  C  C7  1  0.80464609  0.50000000  0.59944436  1
  C  C8  1  0.10640269  0.00000000  0.69856784  1
  C  C9  1  0.19501386  0.50000000  0.39899826  1
  Hf  Hf10  1  0.49885281  0.50000000  0.50050192  1
  Hf  Hf11  1  0.80596549  0.00000000  0.59884498  1
  Mo  Mo12  1  0.39577826  0.00000000  0.79157401  1
  Mo  Mo13  1  0.10525472  0.50000000  0.69061219  1
  Nb  Nb14  1  0.29168107  0.50000000  0.10557573  1
  Nb  Nb15  1  0.59283424  0.00000000  0.19986518  1
  Ta  Ta16  1  0.70466048  0.50000000  0.90262398  1
  Ta  Ta17  1  0.00491884  0.00000000  0.00528925  1
  Ti  Ti18  1  0.19773434  0.00000000  0.40254800  1
  Ti  Ti19  1  0.90168337  0.50000000  0.30328424  1
