# generated using pymatgen
data_HfTaTiNbMoC5
_symmetry_space_group_name_H-M   'P 1'
_cell_length_a   7.09784200
_cell_length_b   4.50320000
_cell_length_c   7.09302900
_cell_angle_alpha   90.00000000
_cell_angle_beta   90.00000000
_cell_angle_gamma   90.00000000
_symmetry_Int_Tables_number   1
_chemical_formula_structural   HfTaTiNbMoC5
_chemical_formula_sum   'Hf2 Ta2 Ti2 Nb2 Mo2 C10'
_cell_volume   226.71450078
_cell_formula_units_Z   2
loop_
 _symmetry_equiv_pos_site_id
 _symmetry_equiv_pos_as_xyz
  1  'x, y, z'
loop_
 _atom_site_type_symbol
 _atom_site_label
 _atom_site_symmetry_multiplicity
 _atom_site_fract_x
 _atom_site_fract_y
 _atom_site_fract_z
 _atom_site_occupancy
  C  C0  1  0.70109942  0.00000000  0.90306564  1
  C  C1  1  0.49347909  0.00000000  0.49857077  1
  C  C2  1  0.60249871  0.50000000  0.19603856  1
  C  C3  1  0.90459141  0.00000000  0.29552634  1
  C  C4  1  0.99683804  0.50000000  0.00236578  1
  C  C5  1  0.29602696  0.00000000  0.10070575  1
  C  C6  1  0.39986616  0.50000000  0.80567361  1
  C  C7  1  0.80467116  0.50000000  0.59967065  1
  C  C8  1  0.10643556  0.00000000  0.69871276  1
  C  C9  1  0.19517926  0.50000000  0.39897011  1
  Hf  Hf10  1  0.49908862  0.50000000  0.50039844  1
  Hf  Hf11  1  0.80620124  0.00000000  0.59903897  1
  Mo  Mo12  1  0.39534817  0.00000000  0.79074627  1
  Mo  Mo13  1  0.10561625  0.50000000  0.68989437  1
  Nb  Nb14  1  0.29137601  0.50000000  0.10580604  1
  Nb  Nb15  1  0.59251888  0.00000000  0.19985394  1
  Ta  Ta16  1  0.70479239  0.50000000  0.90287974  1
  Ta  Ta17  1  0.00491883  0.00000000  0.00592331  1
  Ti  Ti18  1  0.19779465  0.00000000  0.40260994  1
  Ti  Ti19  1  0.90165926  0.50000000  0.30354899  1
