# generated using pymatgen
data_HfTaTiNbMoC5
_symmetry_space_group_name_H-M   'P 1'
_cell_length_a   7.08297300
_cell_length_b   4.48833100
_cell_length_c   7.07816000
_cell_angle_alpha   90.00000000
_cell_angle_beta   90.00000000
_cell_angle_gamma   90.00000000
_symmetry_Int_Tables_number   1
_chemical_formula_structural   HfTaTiNbMoC5
_chemical_formula_sum   'Hf2 Ta2 Ti2 Nb2 Mo2 C10'
_cell_volume   225.01985426
_cell_formula_units_Z   2
loop_
 _symmetry_equiv_pos_site_id
 _symmetry_equiv_pos_as_xyz
  1  'x, y, z'
loop_
 _atom_site_type_symbol
 _atom_site_label
 _atom_site_symmetry_multiplicity
 _atom_site_fract_x
 _atom_site_fract_y
 _atom_site_fract_z
 _atom_site_occupancy
  C  C0  1  0.70105388  0.00000000  0.90293437  1
  C  C1  1  0.49342993  0.00000000  0.49857792  1
  C  C2  1  0.60258503  0.50000000  0.19614461  1
  C  C3  1  0.90460210  0.00000000  0.29551925  1
  C  C4  1  0.99689031  0.50000000  0.00236648  1
  C  C5  1  0.29609009  0.00000000  0.10088399  1
  C  C6  1  0.39989140  0.50000000  0.80579149  1
  C  C7  1  0.80465064  0.50000000  0.59948274  1
  C  C8  1  0.10640010  0.00000000  0.69859040  1
  C  C9  1  0.19504057  0.50000000  0.39898690  1
  Hf  Hf10  1  0.49889652  0.50000000  0.50048249  1
  Hf  Hf11  1  0.80600568  0.00000000  0.59887775  1
  Mo  Mo12  1  0.39571295  0.00000000  0.79142519  1
  Mo  Mo13  1  0.10532904  0.50000000  0.69048997  1
  Nb  Nb14  1  0.29163708  0.50000000  0.10563055  1
  Nb  Nb15  1  0.59279124  0.00000000  0.19988009  1
  Ta  Ta16  1  0.70466927  0.50000000  0.90265978  1
  Ta  Ta17  1  0.00491394  0.00000000  0.00539088  1
  Ti  Ti18  1  0.19773933  0.00000000  0.40255531  1
  Ti  Ti19  1  0.90167093  0.50000000  0.30332985  1
