# generated using pymatgen
data_HfTaTiNbMoC5
_symmetry_space_group_name_H-M   'P 1'
_cell_length_a   7.09584400
_cell_length_b   4.50120200
_cell_length_c   7.09103100
_cell_angle_alpha   90.00000000
_cell_angle_beta   90.00000000
_cell_angle_gamma   90.00000000
_symmetry_Int_Tables_number   1
_chemical_formula_structural   HfTaTiNbMoC5
_chemical_formula_sum   'Hf2 Ta2 Ti2 Nb2 Mo2 C10'
_cell_volume   226.48630484
_cell_formula_units_Z   2
loop_
 _symmetry_equiv_pos_site_id
 _symmetry_equiv_pos_as_xyz
  1  'x, y, z'
loop_
 _atom_site_type_symbol
 _atom_site_label
 _atom_site_symmetry_multiplicity
 _atom_site_fract_x
 _atom_site_fract_y
 _atom_site_fract_z
 _atom_site_occupancy
  C  C0  1  0.70108584  0.00000000  0.90305423  1
  C  C1  1  0.49347725  0.00000000  0.49857154  1
  C  C2  1  0.60251139  0.50000000  0.19605406  1
  C  C3  1  0.90459166  0.00000000  0.29553109  1
  C  C4  1  0.99684167  0.50000000  0.00236244  1
  C  C5  1  0.29603546  0.00000000  0.10071701  1
  C  C6  1  0.39986527  0.50000000  0.80568388  1
  C  C7  1  0.80467259  0.50000000  0.59965551  1
  C  C8  1  0.10642885  0.00000000  0.69870140  1
  C  C9  1  0.19516916  0.50000000  0.39896739  1
  Hf  Hf10  1  0.49907956  0.50000000  0.50040430  1
  Hf  Hf11  1  0.80618625  0.00000000  0.59902703  1
  Mo  Mo12  1  0.39538480  0.00000000  0.79079191  1
  Mo  Mo13  1  0.10559945  0.50000000  0.68993049  1
  Nb  Nb14  1  0.29139876  0.50000000  0.10580662  1
  Nb  Nb15  1  0.59254649  0.00000000  0.19986935  1
  Ta  Ta16  1  0.70477093  0.50000000  0.90285876  1
  Ta  Ta17  1  0.00491108  0.00000000  0.00587887  1
  Ti  Ti18  1  0.19778920  0.00000000  0.40260285  1
  Ti  Ti19  1  0.90165438  0.50000000  0.30353125  1
