# generated using pymatgen
data_HfTaTiNbMoC5
_symmetry_space_group_name_H-M   'P 1'
_cell_length_a   7.08898600
_cell_length_b   4.49434400
_cell_length_c   7.08417300
_cell_angle_alpha   90.00000000
_cell_angle_beta   90.00000000
_cell_angle_gamma   90.00000000
_symmetry_Int_Tables_number   1
_chemical_formula_structural   HfTaTiNbMoC5
_chemical_formula_sum   'Hf2 Ta2 Ti2 Nb2 Mo2 C10'
_cell_volume   225.70417241
_cell_formula_units_Z   2
loop_
 _symmetry_equiv_pos_site_id
 _symmetry_equiv_pos_as_xyz
  1  'x, y, z'
loop_
 _atom_site_type_symbol
 _atom_site_label
 _atom_site_symmetry_multiplicity
 _atom_site_fract_x
 _atom_site_fract_y
 _atom_site_fract_z
 _atom_site_occupancy
  C  C0  1  0.70107571  0.00000000  0.90297296  1
  C  C1  1  0.49344670  0.00000000  0.49857378  1
  C  C2  1  0.60254793  0.50000000  0.19609685  1
  C  C3  1  0.90460510  0.00000000  0.29551541  1
  C  C4  1  0.99687212  0.50000000  0.00236969  1
  C  C5  1  0.29606164  0.00000000  0.10083451  1
  C  C6  1  0.39988326  0.50000000  0.80575162  1
  C  C7  1  0.80465765  0.50000000  0.59954178  1
  C  C8  1  0.10641341  0.00000000  0.69863775  1
  C  C9  1  0.19509020  0.50000000  0.39899248  1
  Hf  Hf10  1  0.49895346  0.50000000  0.50045619  1
  Hf  Hf11  1  0.80606720  0.00000000  0.59892616  1
  Mo  Mo12  1  0.39558462  0.00000000  0.79122416  1
  Mo  Mo13  1  0.10540653  0.50000000  0.69031529  1
  Nb  Nb14  1  0.29154866  0.50000000  0.10566733  1
  Nb  Nb15  1  0.59269486  0.00000000  0.19984968  1
  Ta  Ta16  1  0.70472000  0.50000000  0.90273159  1
  Ta  Ta17  1  0.00492413  0.00000000  0.00556207  1
  Ti  Ti18  1  0.19776592  0.00000000  0.40258416  1
  Ti  Ti19  1  0.90168096  0.50000000  0.30339654  1
