# generated using pymatgen
data_HfTaTiNbMoC5
_symmetry_space_group_name_H-M   'P 1'
_cell_length_a   7.08497900
_cell_length_b   4.49033700
_cell_length_c   7.08016600
_cell_angle_alpha   90.00000000
_cell_angle_beta   90.00000000
_cell_angle_gamma   90.00000000
_symmetry_Int_Tables_number   1
_chemical_formula_structural   HfTaTiNbMoC5
_chemical_formula_sum   'Hf2 Ta2 Ti2 Nb2 Mo2 C10'
_cell_volume   225.24800002
_cell_formula_units_Z   2
loop_
 _symmetry_equiv_pos_site_id
 _symmetry_equiv_pos_as_xyz
  1  'x, y, z'
loop_
 _atom_site_type_symbol
 _atom_site_label
 _atom_site_symmetry_multiplicity
 _atom_site_fract_x
 _atom_site_fract_y
 _atom_site_fract_z
 _atom_site_occupancy
  C  C0  1  0.70106035  0.00000000  0.90294846  1
  C  C1  1  0.49343568  0.00000000  0.49857609  1
  C  C2  1  0.60257286  0.50000000  0.19612839  1
  C  C3  1  0.90460295  0.00000000  0.29551851  1
  C  C4  1  0.99688375  0.50000000  0.00236717  1
  C  C5  1  0.29608139  0.00000000  0.10086558  1
  C  C6  1  0.39988905  0.50000000  0.80577796  1
  C  C7  1  0.80465278  0.50000000  0.59950313  1
  C  C8  1  0.10640422  0.00000000  0.69860718  1
  C  C9  1  0.19505749  0.50000000  0.39898840  1
  Hf  Hf10  1  0.49891675  0.50000000  0.50047206  1
  Hf  Hf11  1  0.80602775  0.00000000  0.59889477  1
  Mo  Mo12  1  0.39566868  0.00000000  0.79135107  1
  Mo  Mo13  1  0.10535882  0.50000000  0.69042893  1
  Nb  Nb14  1  0.29160698  0.50000000  0.10564674  1
  Nb  Nb15  1  0.59275841  0.00000000  0.19987184  1
  Ta  Ta16  1  0.70468459  0.50000000  0.90268425  1
  Ta  Ta17  1  0.00491714  0.00000000  0.00545156  1
  Ti  Ti18  1  0.19774728  0.00000000  0.40256443  1
  Ti  Ti19  1  0.90167311  0.50000000  0.30335344  1
