# generated using pymatgen
data_HfTaTiNbMoC5
_symmetry_space_group_name_H-M   'P 1'
_cell_length_a   7.10467900
_cell_length_b   4.51003700
_cell_length_c   7.09986600
_cell_angle_alpha   90.00000000
_cell_angle_beta   90.00000000
_cell_angle_gamma   90.00000000
_symmetry_Int_Tables_number   1
_chemical_formula_structural   HfTaTiNbMoC5
_chemical_formula_sum   'Hf2 Ta2 Ti2 Nb2 Mo2 C10'
_cell_volume   227.49649898
_cell_formula_units_Z   2
loop_
 _symmetry_equiv_pos_site_id
 _symmetry_equiv_pos_as_xyz
  1  'x, y, z'
loop_
 _atom_site_type_symbol
 _atom_site_label
 _atom_site_symmetry_multiplicity
 _atom_site_fract_x
 _atom_site_fract_y
 _atom_site_fract_z
 _atom_site_occupancy
  C  C0  1  0.70112377  0.00000000  0.90312124  1
  C  C1  1  0.49349665  0.00000000  0.49856262  1
  C  C2  1  0.60246151  0.50000000  0.19598900  1
  C  C3  1  0.90459257  0.00000000  0.29552712  1
  C  C4  1  0.99681910  0.50000000  0.00237454  1
  C  C5  1  0.29600227  0.00000000  0.10063045  1
  C  C6  1  0.39985606  0.50000000  0.80561716  1
  C  C7  1  0.80467376  0.50000000  0.59975018  1
  C  C8  1  0.10645061  0.00000000  0.69876599  1
  C  C9  1  0.19523706  0.50000000  0.39896839  1
  Hf  Hf10  1  0.49916362  0.50000000  0.50036139  1
  Hf  Hf11  1  0.80628416  0.00000000  0.59910827  1
  Mo  Mo12  1  0.39518349  0.00000000  0.79043688  1
  Mo  Mo13  1  0.10572940  0.50000000  0.68964805  1
  Nb  Nb14  1  0.29126585  0.50000000  0.10587051  1
  Nb  Nb15  1  0.59239492  0.00000000  0.19983953  1
  Ta  Ta16  1  0.70485523  0.50000000  0.90297562  1
  Ta  Ta17  1  0.00492960  0.00000000  0.00615889  1
  Ti  Ti18  1  0.19781507  0.00000000  0.40264820  1
  Ti  Ti19  1  0.90166531  0.50000000  0.30364594  1
