# generated using pymatgen
data_HfTaTiNbMoC5
_symmetry_space_group_name_H-M   'P 1'
_cell_length_a   7.11207200
_cell_length_b   4.51743000
_cell_length_c   7.10725900
_cell_angle_alpha   90.00000000
_cell_angle_beta   90.00000000
_cell_angle_gamma   90.00000000
_symmetry_Int_Tables_number   1
_chemical_formula_structural   HfTaTiNbMoC5
_chemical_formula_sum   'Hf2 Ta2 Ti2 Nb2 Mo2 C10'
_cell_volume   228.34405988
_cell_formula_units_Z   2
loop_
 _symmetry_equiv_pos_site_id
 _symmetry_equiv_pos_as_xyz
  1  'x, y, z'
loop_
 _atom_site_type_symbol
 _atom_site_label
 _atom_site_symmetry_multiplicity
 _atom_site_fract_x
 _atom_site_fract_y
 _atom_site_fract_z
 _atom_site_occupancy
  C  C0  1  0.70115506  0.00000000  0.90317893  1
  C  C1  1  0.49351247  0.00000000  0.49855611  1
  C  C2  1  0.60241908  0.50000000  0.19593205  1
  C  C3  1  0.90459782  0.00000000  0.29552637  1
  C  C4  1  0.99679473  0.50000000  0.00238722  1
  C  C5  1  0.29597034  0.00000000  0.10055981  1
  C  C6  1  0.39984472  0.50000000  0.80555679  1
  C  C7  1  0.80468056  0.50000000  0.59982867  1
  C  C8  1  0.10647150  0.00000000  0.69882385  1
  C  C9  1  0.19529846  0.50000000  0.39897330  1
  Hf  Hf10  1  0.49924737  0.50000000  0.50032262  1
  Hf  Hf11  1  0.80637716  0.00000000  0.59917862  1
  Mo  Mo12  1  0.39500171  0.00000000  0.79011373  1
  Mo  Mo13  1  0.10585311  0.50000000  0.68938854  1
  Nb  Nb14  1  0.29114663  0.50000000  0.10594547  1
  Nb  Nb15  1  0.59225707  0.00000000  0.19981271  1
  Ta  Ta16  1  0.70491991  0.50000000  0.90307582  1
  Ta  Ta17  1  0.00494099  0.00000000  0.00641436  1
  Ti  Ti18  1  0.19784127  0.00000000  0.40268590  1
  Ti  Ti19  1  0.90167010  0.50000000  0.30373914  1
