# generated using pymatgen
data_HfTaTiNbMoC5
_symmetry_space_group_name_H-M   'P 1'
_cell_length_a   7.10951600
_cell_length_b   4.51487400
_cell_length_c   7.10470300
_cell_angle_alpha   90.00000000
_cell_angle_beta   90.00000000
_cell_angle_gamma   90.00000000
_symmetry_Int_Tables_number   1
_chemical_formula_structural   HfTaTiNbMoC5
_chemical_formula_sum   'Hf2 Ta2 Ti2 Nb2 Mo2 C10'
_cell_volume   228.05079905
_cell_formula_units_Z   2
loop_
 _symmetry_equiv_pos_site_id
 _symmetry_equiv_pos_as_xyz
  1  'x, y, z'
loop_
 _atom_site_type_symbol
 _atom_site_label
 _atom_site_symmetry_multiplicity
 _atom_site_fract_x
 _atom_site_fract_y
 _atom_site_fract_z
 _atom_site_occupancy
  C  C0  1  0.70114253  0.00000000  0.90315894  1
  C  C1  1  0.49350739  0.00000000  0.49855833  1
  C  C2  1  0.60243389  0.50000000  0.19595233  1
  C  C3  1  0.90459602  0.00000000  0.29552705  1
  C  C4  1  0.99680289  0.50000000  0.00238189  1
  C  C5  1  0.29598254  0.00000000  0.10058243  1
  C  C6  1  0.39984887  0.50000000  0.80557726  1
  C  C7  1  0.80467840  0.50000000  0.59980210  1
  C  C8  1  0.10646355  0.00000000  0.69880551  1
  C  C9  1  0.19527816  0.50000000  0.39897114  1
  Hf  Hf10  1  0.49922077  0.50000000  0.50033504  1
  Hf  Hf11  1  0.80634663  0.00000000  0.59915523  1
  Mo  Mo12  1  0.39506336  0.00000000  0.79021561  1
  Mo  Mo13  1  0.10581598  0.50000000  0.68947256  1
  Nb  Nb14  1  0.29118628  0.50000000  0.10592686  1
  Nb  Nb15  1  0.59230263  0.00000000  0.19982431  1
  Ta  Ta16  1  0.70489563  0.50000000  0.90304033  1
  Ta  Ta17  1  0.00493681  0.00000000  0.00633069  1
  Ti  Ti18  1  0.19783139  0.00000000  0.40267377  1
  Ti  Ti19  1  0.90166631  0.50000000  0.30370859  1
