# generated using pymatgen
data_HfTaTiNbMoC5
_symmetry_space_group_name_H-M   'P 1'
_cell_length_a   7.10012300
_cell_length_b   4.50548100
_cell_length_c   7.09531000
_cell_angle_alpha   90.00000000
_cell_angle_beta   90.00000000
_cell_angle_gamma   90.00000000
_symmetry_Int_Tables_number   1
_chemical_formula_structural   HfTaTiNbMoC5
_chemical_formula_sum   'Hf2 Ta2 Ti2 Nb2 Mo2 C10'
_cell_volume   226.97520124
_cell_formula_units_Z   2
loop_
 _symmetry_equiv_pos_site_id
 _symmetry_equiv_pos_as_xyz
  1  'x, y, z'
loop_
 _atom_site_type_symbol
 _atom_site_label
 _atom_site_symmetry_multiplicity
 _atom_site_fract_x
 _atom_site_fract_y
 _atom_site_fract_z
 _atom_site_occupancy
  C  C0  1  0.70110434  0.00000000  0.90308767  1
  C  C1  1  0.49348648  0.00000000  0.49856659  1
  C  C2  1  0.60248798  0.50000000  0.19602452  1
  C  C3  1  0.90459138  0.00000000  0.29552967  1
  C  C4  1  0.99683161  0.50000000  0.00236779  1
  C  C5  1  0.29602009  0.00000000  0.10067320  1
  C  C6  1  0.39986198  0.50000000  0.80565255  1
  C  C7  1  0.80467265  0.50000000  0.59970337  1
  C  C8  1  0.10643875  0.00000000  0.69873181  1
  C  C9  1  0.19520114  0.50000000  0.39896582  1
  Hf  Hf10  1  0.49911819  0.50000000  0.50038444  1
  Hf  Hf11  1  0.80623146  0.00000000  0.59906751  1
  Mo  Mo12  1  0.39528875  0.00000000  0.79062304  1
  Mo  Mo13  1  0.10566036  0.50000000  0.68979738  1
  Nb  Nb14  1  0.29133622  0.50000000  0.10583266  1
  Nb  Nb15  1  0.59247565  0.00000000  0.19985653  1
  Ta  Ta16  1  0.70481297  0.50000000  0.90291656  1
  Ta  Ta17  1  0.00492073  0.00000000  0.00601049  1
  Ti  Ti18  1  0.19779951  0.00000000  0.40262127  1
  Ti  Ti19  1  0.90165980  0.50000000  0.30358711  1
