# generated using pymatgen
data_HfTaTiNbMoC5
_symmetry_space_group_name_H-M   'P 1'
_cell_length_a   7.10695700
_cell_length_b   4.51231500
_cell_length_c   7.10214400
_cell_angle_alpha   90.00000000
_cell_angle_beta   90.00000000
_cell_angle_gamma   90.00000000
_symmetry_Int_Tables_number   1
_chemical_formula_structural   HfTaTiNbMoC5
_chemical_formula_sum   'Hf2 Ta2 Ti2 Nb2 Mo2 C10'
_cell_volume   227.75743916
_cell_formula_units_Z   2
loop_
 _symmetry_equiv_pos_site_id
 _symmetry_equiv_pos_as_xyz
  1  'x, y, z'
loop_
 _atom_site_type_symbol
 _atom_site_label
 _atom_site_symmetry_multiplicity
 _atom_site_fract_x
 _atom_site_fract_y
 _atom_site_fract_z
 _atom_site_occupancy
  C  C0  1  0.70113219  0.00000000  0.90313850  1
  C  C1  1  0.49350111  0.00000000  0.49856112  1
  C  C2  1  0.60244925  0.50000000  0.19597267  1
  C  C3  1  0.90459467  0.00000000  0.29552654  1
  C  C4  1  0.99681214  0.50000000  0.00237800  1
  C  C5  1  0.29599411  0.00000000  0.10060810  1
  C  C6  1  0.39985309  0.50000000  0.80559898  1
  C  C7  1  0.80467494  0.50000000  0.59977405  1
  C  C8  1  0.10645646  0.00000000  0.69878346  1
  C  C9  1  0.19525568  0.50000000  0.39896952  1
  Hf  Hf10  1  0.49918800  0.50000000  0.50035005  1
  Hf  Hf11  1  0.80631136  0.00000000  0.59912946  1
  Mo  Mo12  1  0.39512794  0.00000000  0.79033761  1
  Mo  Mo13  1  0.10576628  0.50000000  0.68957016  1
  Nb  Nb14  1  0.29123036  0.50000000  0.10589285  1
  Nb  Nb15  1  0.59235360  0.00000000  0.19983207  1
  Ta  Ta16  1  0.70487499  0.50000000  0.90300583  1
  Ta  Ta17  1  0.00493388  0.00000000  0.00623564  1
  Ti  Ti18  1  0.19782240  0.00000000  0.40266034  1
  Ti  Ti19  1  0.90166759  0.50000000  0.30367502  1
