# generated using pymatgen
data_HfTaTiNbMoC5
_symmetry_space_group_name_H-M   'P 1'
_cell_length_a   7.10240200
_cell_length_b   4.50776000
_cell_length_c   7.09758900
_cell_angle_alpha   90.00000000
_cell_angle_beta   90.00000000
_cell_angle_gamma   90.00000000
_symmetry_Int_Tables_number   1
_chemical_formula_structural   HfTaTiNbMoC5
_chemical_formula_sum   'Hf2 Ta2 Ti2 Nb2 Mo2 C10'
_cell_volume   227.23586745
_cell_formula_units_Z   2
loop_
 _symmetry_equiv_pos_site_id
 _symmetry_equiv_pos_as_xyz
  1  'x, y, z'
loop_
 _atom_site_type_symbol
 _atom_site_label
 _atom_site_symmetry_multiplicity
 _atom_site_fract_x
 _atom_site_fract_y
 _atom_site_fract_z
 _atom_site_occupancy
  C  C0  1  0.70111304  0.00000000  0.90310584  1
  C  C1  1  0.49349347  0.00000000  0.49856622  1
  C  C2  1  0.60247418  0.50000000  0.19600692  1
  C  C3  1  0.90459129  0.00000000  0.29552916  1
  C  C4  1  0.99682351  0.50000000  0.00237018  1
  C  C5  1  0.29600936  0.00000000  0.10064978  1
  C  C6  1  0.39985819  0.50000000  0.80563377  1
  C  C7  1  0.80467533  0.50000000  0.59972858  1
  C  C8  1  0.10644615  0.00000000  0.69874926  1
  C  C9  1  0.19522155  0.50000000  0.39896598  1
  Hf  Hf10  1  0.49914489  0.50000000  0.50037202  1
  Hf  Hf11  1  0.80626143  0.00000000  0.59909000  1
  Mo  Mo12  1  0.39523341  0.00000000  0.79052299  1
  Mo  Mo13  1  0.10570112  0.50000000  0.68971204  1
  Nb  Nb14  1  0.29129688  0.50000000  0.10585739  1
  Nb  Nb15  1  0.59243235  0.00000000  0.19984985  1
  Ta  Ta16  1  0.70483226  0.50000000  0.90294875  1
  Ta  Ta17  1  0.00492203  0.00000000  0.00609045  1
  Ti  Ti18  1  0.19780870  0.00000000  0.40263172  1
  Ti  Ti19  1  0.90166093  0.50000000  0.30361909  1
