# generated using pymatgen
data_HfTaTiNbMoC5
_symmetry_space_group_name_H-M   'P 1'
_cell_length_a   7.11717900
_cell_length_b   4.52253700
_cell_length_c   7.11236600
_cell_angle_alpha   90.00000000
_cell_angle_beta   90.00000000
_cell_angle_gamma   90.00000000
_symmetry_Int_Tables_number   1
_chemical_formula_structural   HfTaTiNbMoC5
_chemical_formula_sum   'Hf2 Ta2 Ti2 Nb2 Mo2 C10'
_cell_volume   228.93074124
_cell_formula_units_Z   2
loop_
 _symmetry_equiv_pos_site_id
 _symmetry_equiv_pos_as_xyz
  1  'x, y, z'
loop_
 _atom_site_type_symbol
 _atom_site_label
 _atom_site_symmetry_multiplicity
 _atom_site_fract_x
 _atom_site_fract_y
 _atom_site_fract_z
 _atom_site_occupancy
  C  C0  1  0.70116801  0.00000000  0.90323110  1
  C  C1  1  0.49352954  0.00000000  0.49855620  1
  C  C2  1  0.60238816  0.50000000  0.19589386  1
  C  C3  1  0.90459720  0.00000000  0.29553501  1
  C  C4  1  0.99677019  0.50000000  0.00239533  1
  C  C5  1  0.29594510  0.00000000  0.10048835  1
  C  C6  1  0.39982747  0.50000000  0.80549955  1
  C  C7  1  0.80469318  0.50000000  0.59990026  1
  C  C8  1  0.10649130  0.00000000  0.69887124  1
  C  C9  1  0.19535519  0.50000000  0.39896868  1
  Hf  Hf10  1  0.49934171  0.50000000  0.50028629  1
  Hf  Hf11  1  0.80647208  0.00000000  0.59924712  1
  Mo  Mo12  1  0.39484995  0.00000000  0.78979250  1
  Mo  Mo13  1  0.10598657  0.50000000  0.68910991  1
  Nb  Nb14  1  0.29103510  0.50000000  0.10604997  1
  Nb  Nb15  1  0.59213626  0.00000000  0.19981526  1
  Ta  Ta16  1  0.70495863  0.50000000  0.90316630  1
  Ta  Ta17  1  0.00493366  0.00000000  0.00665627  1
  Ti  Ti18  1  0.19786373  0.00000000  0.40270880  1
  Ti  Ti19  1  0.90165701  0.50000000  0.30382799  1
