# generated using pymatgen
data_HfTaTiNbMoC5
_symmetry_space_group_name_H-M   'P 1'
_cell_length_a   7.11462700
_cell_length_b   4.51998500
_cell_length_c   7.10981400
_cell_angle_alpha   90.00000000
_cell_angle_beta   90.00000000
_cell_angle_gamma   90.00000000
_symmetry_Int_Tables_number   1
_chemical_formula_structural   HfTaTiNbMoC5
_chemical_formula_sum   'Hf2 Ta2 Ti2 Nb2 Mo2 C10'
_cell_volume   228.63745066
_cell_formula_units_Z   2
loop_
 _symmetry_equiv_pos_site_id
 _symmetry_equiv_pos_as_xyz
  1  'x, y, z'
loop_
 _atom_site_type_symbol
 _atom_site_label
 _atom_site_symmetry_multiplicity
 _atom_site_fract_x
 _atom_site_fract_y
 _atom_site_fract_z
 _atom_site_occupancy
  C  C0  1  0.70116521  0.00000000  0.90320234  1
  C  C1  1  0.49351850  0.00000000  0.49855498  1
  C  C2  1  0.60240327  0.50000000  0.19591114  1
  C  C3  1  0.90459790  0.00000000  0.29552783  1
  C  C4  1  0.99678453  0.50000000  0.00239350  1
  C  C5  1  0.29595767  0.00000000  0.10053120  1
  C  C6  1  0.39983933  0.50000000  0.80553213  1
  C  C7  1  0.80468435  0.50000000  0.59985814  1
  C  C8  1  0.10648072  0.00000000  0.69884514  1
  C  C9  1  0.19532236  0.50000000  0.39897329  1
  Hf  Hf10  1  0.49928455  0.50000000  0.50030624  1
  Hf  Hf11  1  0.80641605  0.00000000  0.59920740  1
  Mo  Mo12  1  0.39493124  0.00000000  0.78998434  1
  Mo  Mo13  1  0.10590627  0.50000000  0.68927726  1
  Nb  Nb14  1  0.29109884  0.50000000  0.10598038  1
  Nb  Nb15  1  0.59220428  0.00000000  0.19980522  1
  Ta  Ta16  1  0.70494312  0.50000000  0.90311554  1
  Ta  Ta17  1  0.00494025  0.00000000  0.00651798  1
  Ti  Ti18  1  0.19785314  0.00000000  0.40269781  1
  Ti  Ti19  1  0.90166846  0.50000000  0.30377814  1
