# generated using pymatgen
data_HfTaTiNbMoC5
_symmetry_space_group_name_H-M   'P 1'
_cell_length_a   7.12284250
_cell_length_b   4.52820050
_cell_length_c   7.11802950
_cell_angle_alpha   90.00000000
_cell_angle_beta   90.00000000
_cell_angle_gamma   90.00000000
_symmetry_Int_Tables_number   1
_chemical_formula_structural   HfTaTiNbMoC5
_chemical_formula_sum   'Hf2 Ta2 Ti2 Nb2 Mo2 C10'
_cell_volume   229.58249603
_cell_formula_units_Z   2
loop_
 _symmetry_equiv_pos_site_id
 _symmetry_equiv_pos_as_xyz
  1  'x, y, z'
loop_
 _atom_site_type_symbol
 _atom_site_label
 _atom_site_symmetry_multiplicity
 _atom_site_fract_x
 _atom_site_fract_y
 _atom_site_fract_z
 _atom_site_occupancy
  C  C0  1  0.70119664  0.00000000  0.90327012  1
  C  C1  1  0.49353711  0.00000000  0.49855461  1
  C  C2  1  0.60235607  0.50000000  0.19584613  1
  C  C3  1  0.90460079  0.00000000  0.29553017  1
  C  C4  1  0.99674529  0.50000000  0.00241126  1
  C  C5  1  0.29592106  0.00000000  0.10043928  1
  C  C6  1  0.39982095  0.50000000  0.80545496  1
  C  C7  1  0.80469501  0.50000000  0.59994899  1
  C  C8  1  0.10650060  0.00000000  0.69891026  1
  C  C9  1  0.19539900  0.50000000  0.39897319  1
  Hf  Hf10  1  0.49939756  0.50000000  0.50024983  1
  Hf  Hf11  1  0.80653920  0.00000000  0.59929536  1
  Mo  Mo12  1  0.39471598  0.00000000  0.78956203  1
  Mo  Mo13  1  0.10606648  0.50000000  0.68894767  1
  Nb  Nb14  1  0.29095883  0.50000000  0.10609061  1
  Nb  Nb15  1  0.59203445  0.00000000  0.19978235  1
  Ta  Ta16  1  0.70501089  0.50000000  0.90323895  1
  Ta  Ta17  1  0.00495420  0.00000000  0.00685335  1
  Ti  Ti18  1  0.19788638  0.00000000  0.40274689  1
  Ti  Ti19  1  0.90166354  0.50000000  0.30389398  1
