# generated using pymatgen
data_HfTaTiNbWC5
_symmetry_space_group_name_H-M   'P 1'
_cell_length_a   7.05755300
_cell_length_b   4.46793200
_cell_length_c   7.06006500
_cell_angle_alpha   90.00000000
_cell_angle_beta   90.00000000
_cell_angle_gamma   90.00000000
_symmetry_Int_Tables_number   1
_chemical_formula_structural   HfTaTiNbWC5
_chemical_formula_sum   'Hf2 Ta2 Ti2 Nb2 W2 C10'
_cell_volume   222.62267787
_cell_formula_units_Z   2
loop_
 _symmetry_equiv_pos_site_id
 _symmetry_equiv_pos_as_xyz
  1  'x, y, z'
loop_
 _atom_site_type_symbol
 _atom_site_label
 _atom_site_symmetry_multiplicity
 _atom_site_fract_x
 _atom_site_fract_y
 _atom_site_fract_z
 _atom_site_occupancy
  C  C0  1  0.70278075  0.00000000  0.90785809  1
  C  C1  1  0.49731021  0.00000000  0.49858232  1
  C  C2  1  0.60077551  0.50000000  0.19799637  1
  C  C3  1  0.89531810  0.00000000  0.29225374  1
  C  C4  1  0.00153103  0.50000000  0.00810255  1
  C  C5  1  0.29877600  0.00000000  0.09713936  1
  C  C6  1  0.40482264  0.50000000  0.80410572  1
  C  C7  1  0.79608104  0.50000000  0.59972735  1
  C  C8  1  0.10370425  0.00000000  0.70270535  1
  C  C9  1  0.19731980  0.50000000  0.39268028  1
  Hf  Hf10  1  0.80073969  0.00000000  0.59841052  1
  Hf  Hf11  1  0.10151272  0.50000000  0.70509285  1
  Nb  Nb12  1  0.49613673  0.50000000  0.49129873  1
  Nb  Nb13  1  0.20272652  0.00000000  0.39256050  1
  Ta  Ta14  1  0.39934677  0.00000000  0.80461838  1
  Ta  Ta15  1  0.70189077  0.50000000  0.90541593  1
  Ti  Ti16  1  0.29670464  0.50000000  0.10064262  1
  Ti  Ti17  1  0.00544329  0.00000000  0.00607461  1
  W  W18  1  0.58714178  0.00000000  0.19615842  1
  W  W19  1  0.90993777  0.50000000  0.29857631  1
