# generated using pymatgen
data_HfTaTiNbWC5
_symmetry_space_group_name_H-M   'P 1'
_cell_length_a   7.05928400
_cell_length_b   4.46966300
_cell_length_c   7.06179600
_cell_angle_alpha   90.00000000
_cell_angle_beta   90.00000000
_cell_angle_gamma   90.00000000
_symmetry_Int_Tables_number   1
_chemical_formula_structural   HfTaTiNbWC5
_chemical_formula_sum   'Hf2 Ta2 Ti2 Nb2 W2 C10'
_cell_volume   222.81816925
_cell_formula_units_Z   2
loop_
 _symmetry_equiv_pos_site_id
 _symmetry_equiv_pos_as_xyz
  1  'x, y, z'
loop_
 _atom_site_type_symbol
 _atom_site_label
 _atom_site_symmetry_multiplicity
 _atom_site_fract_x
 _atom_site_fract_y
 _atom_site_fract_z
 _atom_site_occupancy
  C  C0  1  0.70275008  0.00000000  0.90785921  1
  C  C1  1  0.49731235  0.00000000  0.49857268  1
  C  C2  1  0.60079419  0.50000000  0.19799930  1
  C  C3  1  0.89532518  0.00000000  0.29226115  1
  C  C4  1  0.00150931  0.50000000  0.00811049  1
  C  C5  1  0.29878579  0.00000000  0.09713676  1
  C  C6  1  0.40482376  0.50000000  0.80409653  1
  C  C7  1  0.79608200  0.50000000  0.59973114  1
  C  C8  1  0.10371258  0.00000000  0.70269756  1
  C  C9  1  0.19732107  0.50000000  0.39268571  1
  Hf  Hf10  1  0.80074049  0.00000000  0.59840843  1
  Hf  Hf11  1  0.10150891  0.50000000  0.70510816  1
  Nb  Nb12  1  0.49613619  0.50000000  0.49126806  1
  Nb  Nb13  1  0.20274852  0.00000000  0.39254971  1
  Ta  Ta14  1  0.39932736  0.00000000  0.80462551  1
  Ta  Ta15  1  0.70186328  0.50000000  0.90543488  1
  Ti  Ti16  1  0.29669903  0.50000000  0.10064539  1
  Ti  Ti17  1  0.00544728  0.00000000  0.00610164  1
  W  W18  1  0.58711620  0.00000000  0.19613619  1
  W  W19  1  0.90999644  0.50000000  0.29857151  1
