# generated using pymatgen
data_HfTaTiNbWC5
_symmetry_space_group_name_H-M   'P 1'
_cell_length_a   7.06504500
_cell_length_b   4.47542400
_cell_length_c   7.06755700
_cell_angle_alpha   90.00000000
_cell_angle_beta   90.00000000
_cell_angle_gamma   90.00000000
_symmetry_Int_Tables_number   1
_chemical_formula_structural   HfTaTiNbWC5
_chemical_formula_sum   'Hf2 Ta2 Ti2 Nb2 W2 C10'
_cell_volume   223.46959332
_cell_formula_units_Z   2
loop_
 _symmetry_equiv_pos_site_id
 _symmetry_equiv_pos_as_xyz
  1  'x, y, z'
loop_
 _atom_site_type_symbol
 _atom_site_label
 _atom_site_symmetry_multiplicity
 _atom_site_fract_x
 _atom_site_fract_y
 _atom_site_fract_z
 _atom_site_occupancy
  C  C0  1  0.70253100  0.00000000  0.90788862  1
  C  C1  1  0.49730693  0.00000000  0.49850796  1
  C  C2  1  0.60087372  0.50000000  0.19801846  1
  C  C3  1  0.89526548  0.00000000  0.29228585  1
  C  C4  1  0.00148386  0.50000000  0.00826065  1
  C  C5  1  0.29888247  0.00000000  0.09703221  1
  C  C6  1  0.40482721  0.50000000  0.80407307  1
  C  C7  1  0.79611063  0.50000000  0.59958990  1
  C  C8  1  0.10370216  0.00000000  0.70263491  1
  C  C9  1  0.19740965  0.50000000  0.39273524  1
  Hf  Hf10  1  0.80074717  0.00000000  0.59836265  1
  Hf  Hf11  1  0.10150476  0.50000000  0.70533700  1
  Nb  Nb12  1  0.49624667  0.50000000  0.49102561  1
  Nb  Nb13  1  0.20265972  0.00000000  0.39251471  1
  Ta  Ta14  1  0.39924535  0.00000000  0.80451798  1
  Ta  Ta15  1  0.70169528  0.50000000  0.90566408  1
  Ti  Ti16  1  0.29676719  0.50000000  0.10067209  1
  Ti  Ti17  1  0.00549299  0.00000000  0.00621180  1
  W  W18  1  0.58674568  0.00000000  0.19603833  1
  W  W19  1  0.91050207  0.50000000  0.29862887  1
