# generated using pymatgen
data_HfTaTiNbWC5
_symmetry_space_group_name_H-M   'P 1'
_cell_length_a   7.06857000
_cell_length_b   4.47894900
_cell_length_c   7.07108200
_cell_angle_alpha   90.00000000
_cell_angle_beta   90.00000000
_cell_angle_gamma   90.00000000
_symmetry_Int_Tables_number   1
_chemical_formula_structural   HfTaTiNbWC5
_chemical_formula_sum   'Hf2 Ta2 Ti2 Nb2 W2 C10'
_cell_volume   223.86879111
_cell_formula_units_Z   2
loop_
 _symmetry_equiv_pos_site_id
 _symmetry_equiv_pos_as_xyz
  1  'x, y, z'
loop_
 _atom_site_type_symbol
 _atom_site_label
 _atom_site_symmetry_multiplicity
 _atom_site_fract_x
 _atom_site_fract_y
 _atom_site_fract_z
 _atom_site_occupancy
  C  C0  1  0.70246888  0.00000000  0.90789365  1
  C  C1  1  0.49730803  0.00000000  0.49848604  1
  C  C2  1  0.60090318  0.50000000  0.19801834  1
  C  C3  1  0.89528017  0.00000000  0.29230372  1
  C  C4  1  0.00144319  0.50000000  0.00827939  1
  C  C5  1  0.29891106  0.00000000  0.09702973  1
  C  C6  1  0.40483079  0.50000000  0.80405585  1
  C  C7  1  0.79611475  0.50000000  0.59959120  1
  C  C8  1  0.10371669  0.00000000  0.70262368  1
  C  C9  1  0.19741395  0.50000000  0.39274331  1
  Hf  Hf10  1  0.80074609  0.00000000  0.59835908  1
  Hf  Hf11  1  0.10150034  0.50000000  0.70536944  1
  Nb  Nb12  1  0.49625046  0.50000000  0.49096178  1
  Nb  Nb13  1  0.20269824  0.00000000  0.39249223  1
  Ta  Ta14  1  0.39920916  0.00000000  0.80453106  1
  Ta  Ta15  1  0.70163991  0.50000000  0.90570336  1
  Ti  Ti16  1  0.29675209  0.50000000  0.10067982  1
  Ti  Ti17  1  0.00549435  0.00000000  0.00625993  1
  W  W18  1  0.58670070  0.00000000  0.19599724  1
  W  W19  1  0.91061799  0.50000000  0.29862118  1
