# generated using pymatgen
data_HfTaTiNbWC5
_symmetry_space_group_name_H-M   'P 1'
_cell_length_a   7.06216500
_cell_length_b   4.47254400
_cell_length_c   7.06467700
_cell_angle_alpha   90.00000000
_cell_angle_beta   90.00000000
_cell_angle_gamma   90.00000000
_symmetry_Int_Tables_number   1
_chemical_formula_structural   HfTaTiNbWC5
_chemical_formula_sum   'Hf2 Ta2 Ti2 Nb2 W2 C10'
_cell_volume   223.14378350
_cell_formula_units_Z   2
loop_
 _symmetry_equiv_pos_site_id
 _symmetry_equiv_pos_as_xyz
  1  'x, y, z'
loop_
 _atom_site_type_symbol
 _atom_site_label
 _atom_site_symmetry_multiplicity
 _atom_site_fract_x
 _atom_site_fract_y
 _atom_site_fract_z
 _atom_site_occupancy
  C  C0  1  0.70258262  0.00000000  0.90788664  1
  C  C1  1  0.49730527  0.00000000  0.49852611  1
  C  C2  1  0.60084751  0.50000000  0.19801787  1
  C  C3  1  0.89525240  0.00000000  0.29227040  1
  C  C4  1  0.00151757  0.50000000  0.00824421  1
  C  C5  1  0.29886123  0.00000000  0.09703516  1
  C  C6  1  0.40482575  0.50000000  0.80408838  1
  C  C7  1  0.79610716  0.50000000  0.59958886  1
  C  C8  1  0.10369007  0.00000000  0.70264594  1
  C  C9  1  0.19740596  0.50000000  0.39272600  1
  Hf  Hf10  1  0.80074643  0.00000000  0.59836533  1
  Hf  Hf11  1  0.10151028  0.50000000  0.70530784  1
  Nb  Nb12  1  0.49624363  0.50000000  0.49107812  1
  Nb  Nb13  1  0.20262662  0.00000000  0.39253179  1
  Ta  Ta14  1  0.39927598  0.00000000  0.80450773  1
  Ta  Ta15  1  0.70174270  0.50000000  0.90563251  1
  Ti  Ti16  1  0.29677802  0.50000000  0.10066732  1
  Ti  Ti17  1  0.00549118  0.00000000  0.00617016  1
  W  W18  1  0.58678612  0.00000000  0.19607353  1
  W  W19  1  0.91040349  0.50000000  0.29863609  1
