# generated using pymatgen
data_HfTaTiNbWC5
_symmetry_space_group_name_H-M   'P 1'
_cell_length_a   7.05841800
_cell_length_b   4.46879700
_cell_length_c   7.06093000
_cell_angle_alpha   90.00000000
_cell_angle_beta   90.00000000
_cell_angle_gamma   90.00000000
_symmetry_Int_Tables_number   1
_chemical_formula_structural   HfTaTiNbWC5
_chemical_formula_sum   'Hf2 Ta2 Ti2 Nb2 W2 C10'
_cell_volume   222.72035317
_cell_formula_units_Z   2
loop_
 _symmetry_equiv_pos_site_id
 _symmetry_equiv_pos_as_xyz
  1  'x, y, z'
loop_
 _atom_site_type_symbol
 _atom_site_label
 _atom_site_symmetry_multiplicity
 _atom_site_fract_x
 _atom_site_fract_y
 _atom_site_fract_z
 _atom_site_occupancy
  C  C0  1  0.70276501  0.00000000  0.90785851  1
  C  C1  1  0.49731141  0.00000000  0.49857751  1
  C  C2  1  0.60078530  0.50000000  0.19799824  1
  C  C3  1  0.89532152  0.00000000  0.29225752  1
  C  C4  1  0.00152013  0.50000000  0.00810654  1
  C  C5  1  0.29878033  0.00000000  0.09713767  1
  C  C6  1  0.40482318  0.50000000  0.80410091  1
  C  C7  1  0.79608169  0.50000000  0.59972951  1
  C  C8  1  0.10370841  0.00000000  0.70270108  1
  C  C9  1  0.19732072  0.50000000  0.39268335  1
  Hf  Hf10  1  0.80074007  0.00000000  0.59840945  1
  Hf  Hf11  1  0.10151081  0.50000000  0.70510065  1
  Nb  Nb12  1  0.49613598  0.50000000  0.49128334  1
  Nb  Nb13  1  0.20273770  0.00000000  0.39255550  1
  Ta  Ta14  1  0.39933685  0.00000000  0.80462129  1
  Ta  Ta15  1  0.70187693  0.50000000  0.90542554  1
  Ti  Ti16  1  0.29670250  0.50000000  0.10064412  1
  Ti  Ti17  1  0.00544563  0.00000000  0.00608839  1
  W  W18  1  0.58712770  0.00000000  0.19614675  1
  W  W19  1  0.90996813  0.50000000  0.29857413  1
