# generated using pymatgen
data_HfTaTiNbWC5
_symmetry_space_group_name_H-M   'P 1'
_cell_length_a   7.06360500
_cell_length_b   4.47398400
_cell_length_c   7.06611700
_cell_angle_alpha   90.00000000
_cell_angle_beta   90.00000000
_cell_angle_gamma   90.00000000
_symmetry_Int_Tables_number   1
_chemical_formula_structural   HfTaTiNbWC5
_chemical_formula_sum   'Hf2 Ta2 Ti2 Nb2 W2 C10'
_cell_volume   223.30664983
_cell_formula_units_Z   2
loop_
 _symmetry_equiv_pos_site_id
 _symmetry_equiv_pos_as_xyz
  1  'x, y, z'
loop_
 _atom_site_type_symbol
 _atom_site_label
 _atom_site_symmetry_multiplicity
 _atom_site_fract_x
 _atom_site_fract_y
 _atom_site_fract_z
 _atom_site_occupancy
  C  C0  1  0.70255664  0.00000000  0.90788765  1
  C  C1  1  0.49730606  0.00000000  0.49851688  1
  C  C2  1  0.60086113  0.50000000  0.19801834  1
  C  C3  1  0.89525894  0.00000000  0.29227816  1
  C  C4  1  0.00150063  0.50000000  0.00825251  1
  C  C5  1  0.29887153  0.00000000  0.09703347  1
  C  C6  1  0.40482698  0.50000000  0.80408053  1
  C  C7  1  0.79610922  0.50000000  0.59958916  1
  C  C8  1  0.10369594  0.00000000  0.70264038  1
  C  C9  1  0.19740795  0.50000000  0.39273099  1
  Hf  Hf10  1  0.80074694  0.00000000  0.59836372  1
  Hf  Hf11  1  0.10150733  0.50000000  0.70532320  1
  Nb  Nb12  1  0.49624491  0.50000000  0.49105200  1
  Nb  Nb13  1  0.20264336  0.00000000  0.39252360  1
  Ta  Ta14  1  0.39926061  0.00000000  0.80451269  1
  Ta  Ta15  1  0.70171916  0.50000000  0.90564781  1
  Ti  Ti16  1  0.29677306  0.50000000  0.10066937  1
  Ti  Ti17  1  0.00549092  0.00000000  0.00619124  1
  W  W18  1  0.58676514  0.00000000  0.19605602  1
  W  W19  1  0.91045354  0.50000000  0.29863232  1
