# generated using pymatgen
data_HfTaTiNbWC5
_symmetry_space_group_name_H-M   'P 1'
_cell_length_a   7.06043700
_cell_length_b   4.47081600
_cell_length_c   7.06294900
_cell_angle_alpha   90.00000000
_cell_angle_beta   90.00000000
_cell_angle_gamma   90.00000000
_symmetry_Int_Tables_number   1
_chemical_formula_structural   HfTaTiNbWC5
_chemical_formula_sum   'Hf2 Ta2 Ti2 Nb2 W2 C10'
_cell_volume   222.94844571
_cell_formula_units_Z   2
loop_
 _symmetry_equiv_pos_site_id
 _symmetry_equiv_pos_as_xyz
  1  'x, y, z'
loop_
 _atom_site_type_symbol
 _atom_site_label
 _atom_site_symmetry_multiplicity
 _atom_site_fract_x
 _atom_site_fract_y
 _atom_site_fract_z
 _atom_site_occupancy
  C  C0  1  0.70272952  0.00000000  0.90786003  1
  C  C1  1  0.49731330  0.00000000  0.49856636  1
  C  C2  1  0.60080628  0.50000000  0.19800090  1
  C  C3  1  0.89532980  0.00000000  0.29226662  1
  C  C4  1  0.00149524  0.50000000  0.00811605  1
  C  C5  1  0.29879307  0.00000000  0.09713510  1
  C  C6  1  0.40482444  0.50000000  0.80409031  1
  C  C7  1  0.79608278  0.50000000  0.59973316  1
  C  C8  1  0.10371815  0.00000000  0.70269249  1
  C  C9  1  0.19732184  0.50000000  0.39268901  1
  Hf  Hf10  1  0.80074100  0.00000000  0.59840732  1
  Hf  Hf11  1  0.10150654  0.50000000  0.70511868  1
  Nb  Nb12  1  0.49613620  0.50000000  0.49124693  1
  Nb  Nb13  1  0.20276305  0.00000000  0.39254273  1
  Ta  Ta14  1  0.39931439  0.00000000  0.80463052  1
  Ta  Ta15  1  0.70184477  0.50000000  0.90544748  1
  Ti  Ti16  1  0.29669519  0.50000000  0.10064728  1
  Ti  Ti17  1  0.00544944  0.00000000  0.00611911  1
  W  W18  1  0.58710000  0.00000000  0.19612173  1
  W  W19  1  0.91003500  0.50000000  0.29856819  1
