# generated using pymatgen
data_HfTaTiNbWC5
_symmetry_space_group_name_H-M   'P 1'
_cell_length_a   7.06705800
_cell_length_b   4.47743700
_cell_length_c   7.06957000
_cell_angle_alpha   90.00000000
_cell_angle_beta   90.00000000
_cell_angle_gamma   90.00000000
_symmetry_Int_Tables_number   1
_chemical_formula_structural   HfTaTiNbWC5
_chemical_formula_sum   'Hf2 Ta2 Ti2 Nb2 W2 C10'
_cell_volume   223.69750409
_cell_formula_units_Z   2
loop_
 _symmetry_equiv_pos_site_id
 _symmetry_equiv_pos_as_xyz
  1  'x, y, z'
loop_
 _atom_site_type_symbol
 _atom_site_label
 _atom_site_symmetry_multiplicity
 _atom_site_fract_x
 _atom_site_fract_y
 _atom_site_fract_z
 _atom_site_occupancy
  C  C0  1  0.70249609  0.00000000  0.90789191  1
  C  C1  1  0.49730725  0.00000000  0.49849569  1
  C  C2  1  0.60089019  0.50000000  0.19801808  1
  C  C3  1  0.89527314  0.00000000  0.29229592  1
  C  C4  1  0.00146133  0.50000000  0.00827050  1
  C  C5  1  0.29889928  0.00000000  0.09703159  1
  C  C6  1  0.40482970  0.50000000  0.80406359  1
  C  C7  1  0.79611293  0.50000000  0.59959080  1
  C  C8  1  0.10371038  0.00000000  0.70262872  1
  C  C9  1  0.19741177  0.50000000  0.39273937  1
  Hf  Hf10  1  0.80074619  0.00000000  0.59836047  1
  Hf  Hf11  1  0.10150276  0.50000000  0.70535488  1
  Nb  Nb12  1  0.49624855  0.50000000  0.49098927  1
  Nb  Nb13  1  0.20268141  0.00000000  0.39250196  1
  Ta  Ta14  1  0.39922506  0.00000000  0.80452609  1
  Ta  Ta15  1  0.70166468  0.50000000  0.90568626  1
  Ti  Ti16  1  0.29675703  0.50000000  0.10067638  1
  Ti  Ti17  1  0.00549469  0.00000000  0.00623862  1
  W  W18  1  0.58672131  0.00000000  0.19601546  1
  W  W19  1  0.91056622  0.50000000  0.29862445  1
