# generated using pymatgen
data_Ti2C
_symmetry_space_group_name_H-M   'P 1'
_cell_length_a   3.07707070
_cell_length_b   6.07976997
_cell_length_c   8.44137812
_cell_angle_alpha   89.19503992
_cell_angle_beta   90.00000000
_cell_angle_gamma   90.00000000
_symmetry_Int_Tables_number   1
_chemical_formula_structural   Ti2C
_chemical_formula_sum   'Ti8 C4'
_cell_volume   157.90472113
_cell_formula_units_Z   4
loop_
 _symmetry_equiv_pos_site_id
 _symmetry_equiv_pos_as_xyz
  1  'x, y, z'
loop_
 _atom_site_type_symbol
 _atom_site_label
 _atom_site_symmetry_multiplicity
 _atom_site_fract_x
 _atom_site_fract_y
 _atom_site_fract_z
 _atom_site_occupancy
  Ti  Ti0  1  0.50000000  0.24662576  0.00728137  1
  Ti  Ti1  1  0.00000000  0.98367373  0.74409528  1
  Ti  Ti2  1  0.50000000  0.24711209  0.50830887  1
  Ti  Ti3  1  0.00000000  0.00153972  0.24654337  1
  Ti  Ti4  1  0.50000000  0.76889316  0.99836298  1
  Ti  Ti5  1  0.00000000  0.50560631  0.73966137  1
  Ti  Ti6  1  0.50000000  0.74860066  0.50280867  1
  Ti  Ti7  1  0.00000000  0.50370736  0.25391149  1
  C  C8  1  0.50000000  0.25146943  0.25935780  1
  C  C9  1  0.00000000  0.01263495  0.99419469  1
  C  C10  1  0.50000000  0.74291309  0.74850339  1
  C  C11  1  0.50000000  0.74859567  0.25410824  1
