# generated using pymatgen
data_HfTaTiNbWC5
_symmetry_space_group_name_H-M   'P 1'
_cell_length_a   7.07022100
_cell_length_b   4.48060000
_cell_length_c   7.07273300
_cell_angle_alpha   90.00000000
_cell_angle_beta   90.00000000
_cell_angle_gamma   90.00000000
_symmetry_Int_Tables_number   1
_chemical_formula_structural   HfTaTiNbWC5
_chemical_formula_sum   'Hf2 Ta2 Ti2 Nb2 W2 C10'
_cell_volume   224.05592199
_cell_formula_units_Z   2
loop_
 _symmetry_equiv_pos_site_id
 _symmetry_equiv_pos_as_xyz
  1  'x, y, z'
loop_
 _atom_site_type_symbol
 _atom_site_label
 _atom_site_symmetry_multiplicity
 _atom_site_fract_x
 _atom_site_fract_y
 _atom_site_fract_z
 _atom_site_occupancy
  C  C0  1  0.70256805  0.00000000  0.90786482  1
  C  C1  1  0.49731220  0.00000000  0.49850293  1
  C  C2  1  0.60089487  0.50000000  0.19799308  1
  C  C3  1  0.89537487  0.00000000  0.29232513  1
  C  C4  1  0.00139039  0.50000000  0.00817885  1
  C  C5  1  0.29887811  0.00000000  0.09714276  1
  C  C6  1  0.40482931  0.50000000  0.80403697  1
  C  C7  1  0.79608370  0.50000000  0.59972895  1
  C  C8  1  0.10375027  0.00000000  0.70266929  1
  C  C9  1  0.19733810  0.50000000  0.39271370  1
  Hf  Hf10  1  0.80073465  0.00000000  0.59842220  1
  Hf  Hf11  1  0.10149691  0.50000000  0.70519884  1
  Nb  Nb12  1  0.49616360  0.50000000  0.49108025  1
  Nb  Nb13  1  0.20285614  0.00000000  0.39246890  1
  Ta  Ta14  1  0.39922196  0.00000000  0.80467395  1
  Ta  Ta15  1  0.70168793  0.50000000  0.90554434  1
  Ti  Ti16  1  0.29664032  0.50000000  0.10066756  1
  Ti  Ti17  1  0.00542646  0.00000000  0.00623695  1
  W  W18  1  0.58700943  0.00000000  0.19601401  1
  W  W19  1  0.91034270  0.50000000  0.29853654  1
