# generated using pymatgen
data_HfTaTiNbWC5
_symmetry_space_group_name_H-M   'P 1'
_cell_length_a   7.07768100
_cell_length_b   4.48806000
_cell_length_c   7.08019300
_cell_angle_alpha   90.00000000
_cell_angle_beta   90.00000000
_cell_angle_gamma   90.00000000
_symmetry_Int_Tables_number   1
_chemical_formula_structural   HfTaTiNbWC5
_chemical_formula_sum   'Hf2 Ta2 Ti2 Nb2 W2 C10'
_cell_volume   224.90273414
_cell_formula_units_Z   2
loop_
 _symmetry_equiv_pos_site_id
 _symmetry_equiv_pos_as_xyz
  1  'x, y, z'
loop_
 _atom_site_type_symbol
 _atom_site_label
 _atom_site_symmetry_multiplicity
 _atom_site_fract_x
 _atom_site_fract_y
 _atom_site_fract_z
 _atom_site_occupancy
  C  C0  1  0.70244037  0.00000000  0.90787032  1
  C  C1  1  0.49731404  0.00000000  0.49845636  1
  C  C2  1  0.60095983  0.50000000  0.19799276  1
  C  C3  1  0.89540976  0.00000000  0.29236492  1
  C  C4  1  0.00130468  0.50000000  0.00822623  1
  C  C5  1  0.29893806  0.00000000  0.09713978  1
  C  C6  1  0.40483008  0.50000000  0.80400206  1
  C  C7  1  0.79608713  0.50000000  0.59973152  1
  C  C8  1  0.10378077  0.00000000  0.70264379  1
  C  C9  1  0.19734747  0.50000000  0.39273242  1
  Hf  Hf10  1  0.80073615  0.00000000  0.59842116  1
  Hf  Hf11  1  0.10148475  0.50000000  0.70526271  1
  Nb  Nb12  1  0.49617602  0.50000000  0.49094869  1
  Nb  Nb13  1  0.20293855  0.00000000  0.39241687  1
  Ta  Ta14  1  0.39914507  0.00000000  0.80470490  1
  Ta  Ta15  1  0.70156433  0.50000000  0.90562364  1
  Ti  Ti16  1  0.29660409  0.50000000  0.10068250  1
  Ti  Ti17  1  0.00542802  0.00000000  0.00634078  1
  W  W18  1  0.58692105  0.00000000  0.19592308  1
  W  W19  1  0.91058977  0.50000000  0.29851554  1
