# generated using pymatgen
data_HfTaTiNbWC5
_symmetry_space_group_name_H-M   'P 1'
_cell_length_a   7.07939900
_cell_length_b   4.48977800
_cell_length_c   7.08191100
_cell_angle_alpha   90.00000000
_cell_angle_beta   90.00000000
_cell_angle_gamma   90.00000000
_symmetry_Int_Tables_number   1
_chemical_formula_structural   HfTaTiNbWC5
_chemical_formula_sum   'Hf2 Ta2 Ti2 Nb2 W2 C10'
_cell_volume   225.09804458
_cell_formula_units_Z   2
loop_
 _symmetry_equiv_pos_site_id
 _symmetry_equiv_pos_as_xyz
  1  'x, y, z'
loop_
 _atom_site_type_symbol
 _atom_site_label
 _atom_site_symmetry_multiplicity
 _atom_site_fract_x
 _atom_site_fract_y
 _atom_site_fract_z
 _atom_site_occupancy
  C  C0  1  0.70227112  0.00000000  0.90790564  1
  C  C1  1  0.49731222  0.00000000  0.49841599  1
  C  C2  1  0.60099081  0.50000000  0.19801645  1
  C  C3  1  0.89533206  0.00000000  0.29236265  1
  C  C4  1  0.00131730  0.50000000  0.00834635  1
  C  C5  1  0.29899750  0.00000000  0.09701913  1
  C  C6  1  0.40483598  0.50000000  0.80400127  1
  C  C7  1  0.79612912  0.50000000  0.59959629  1
  C  C8  1  0.10376202  0.00000000  0.70258346  1
  C  C9  1  0.19742615  0.50000000  0.39277271  1
  Hf  Hf10  1  0.80074781  0.00000000  0.59834967  1
  Hf  Hf11  1  0.10147945  0.50000000  0.70547224  1
  Nb  Nb12  1  0.49626007  0.50000000  0.49075758  1
  Nb  Nb13  1  0.20282291  0.00000000  0.39242622  1
  Ta  Ta14  1  0.39909306  0.00000000  0.80456737  1
  Ta  Ta15  1  0.70145940  0.50000000  0.90582669  1
  Ti  Ti16  1  0.29671450  0.50000000  0.10069959  1
  Ti  Ti17  1  0.00550849  0.00000000  0.00642224  1
  W  W18  1  0.58654846  0.00000000  0.19586364  1
  W  W19  1  0.91099160  0.50000000  0.29859480  1
