# generated using pymatgen
data_HfTaTiNbWC5
_symmetry_space_group_name_H-M   'P 1'
_cell_length_a   7.07395300
_cell_length_b   4.48433200
_cell_length_c   7.07646500
_cell_angle_alpha   90.00000000
_cell_angle_beta   90.00000000
_cell_angle_gamma   90.00000000
_symmetry_Int_Tables_number   1
_chemical_formula_structural   HfTaTiNbWC5
_chemical_formula_sum   'Hf2 Ta2 Ti2 Nb2 W2 C10'
_cell_volume   224.47929583
_cell_formula_units_Z   2
loop_
 _symmetry_equiv_pos_site_id
 _symmetry_equiv_pos_as_xyz
  1  'x, y, z'
loop_
 _atom_site_type_symbol
 _atom_site_label
 _atom_site_symmetry_multiplicity
 _atom_site_fract_x
 _atom_site_fract_y
 _atom_site_fract_z
 _atom_site_occupancy
  C  C0  1  0.70250407  0.00000000  0.90786716  1
  C  C1  1  0.49731385  0.00000000  0.49847970  1
  C  C2  1  0.60092813  0.50000000  0.19799300  1
  C  C3  1  0.89539200  0.00000000  0.29234462  1
  C  C4  1  0.00134895  0.50000000  0.00820254  1
  C  C5  1  0.29890744  0.00000000  0.09714105  1
  C  C6  1  0.40482891  0.50000000  0.80401971  1
  C  C7  1  0.79608474  0.50000000  0.59972906  1
  C  C8  1  0.10376480  0.00000000  0.70265600  1
  C  C9  1  0.19734414  0.50000000  0.39272393  1
  Hf  Hf10  1  0.80073525  0.00000000  0.59842273  1
  Hf  Hf11  1  0.10149034  0.50000000  0.70523010  1
  Nb  Nb12  1  0.49616884  0.50000000  0.49101608  1
  Nb  Nb13  1  0.20289657  0.00000000  0.39244387  1
  Ta  Ta14  1  0.39918355  0.00000000  0.80468864  1
  Ta  Ta15  1  0.70162692  0.50000000  0.90558331  1
  Ti  Ti16  1  0.29662206  0.50000000  0.10067484  1
  Ti  Ti17  1  0.00542778  0.00000000  0.00629033  1
  W  W18  1  0.58696431  0.00000000  0.19596780  1
  W  W19  1  0.91046733  0.50000000  0.29852552  1
