# generated using pymatgen
data_HfTaTiNbWC5
_symmetry_space_group_name_H-M   'P 1'
_cell_length_a   7.08540900
_cell_length_b   4.49578800
_cell_length_c   7.08792100
_cell_angle_alpha   90.00000000
_cell_angle_beta   90.00000000
_cell_angle_gamma   90.00000000
_symmetry_Int_Tables_number   1
_chemical_formula_structural   HfTaTiNbWC5
_chemical_formula_sum   'Hf2 Ta2 Ti2 Nb2 W2 C10'
_cell_volume   225.78215651
_cell_formula_units_Z   2
loop_
 _symmetry_equiv_pos_site_id
 _symmetry_equiv_pos_as_xyz
  1  'x, y, z'
loop_
 _atom_site_type_symbol
 _atom_site_label
 _atom_site_symmetry_multiplicity
 _atom_site_fract_x
 _atom_site_fract_y
 _atom_site_fract_z
 _atom_site_occupancy
  C  C0  1  0.70216141  0.00000000  0.90791219  1
  C  C1  1  0.49731230  0.00000000  0.49837691  1
  C  C2  1  0.60103803  0.50000000  0.19801602  1
  C  C3  1  0.89536120  0.00000000  0.29239411  1
  C  C4  1  0.00124915  0.50000000  0.00838531  1
  C  C5  1  0.29904492  0.00000000  0.09701409  1
  C  C6  1  0.40484016  0.50000000  0.80397290  1
  C  C7  1  0.79613745  0.50000000  0.59960130  1
  C  C8  1  0.10378688  0.00000000  0.70256407  1
  C  C9  1  0.19743012  0.50000000  0.39278718  1
  Hf  Hf10  1  0.80074839  0.00000000  0.59834313  1
  Hf  Hf11  1  0.10146748  0.50000000  0.70552787  1
  Nb  Nb12  1  0.49626636  0.50000000  0.49064388  1
  Nb  Nb13  1  0.20289287  0.00000000  0.39238932  1
  Ta  Ta14  1  0.39902711  0.00000000  0.80458908  1
  Ta  Ta15  1  0.70135722  0.50000000  0.90589555  1
  Ti  Ti16  1  0.29669578  0.50000000  0.10071413  1
  Ti  Ti17  1  0.00551972  0.00000000  0.00650944  1
  W  W18  1  0.58646643  0.00000000  0.19578768  1
  W  W19  1  0.91119703  0.50000000  0.29857585  1
