# generated using pymatgen
data_HfTaTiNbWC5
_symmetry_space_group_name_H-M   'P 1'
_cell_length_a   7.08111700
_cell_length_b   4.49149600
_cell_length_c   7.08362900
_cell_angle_alpha   90.00000000
_cell_angle_beta   90.00000000
_cell_angle_gamma   90.00000000
_symmetry_Int_Tables_number   1
_chemical_formula_structural   HfTaTiNbWC5
_chemical_formula_sum   'Hf2 Ta2 Ti2 Nb2 W2 C10'
_cell_volume   225.29346511
_cell_formula_units_Z   2
loop_
 _symmetry_equiv_pos_site_id
 _symmetry_equiv_pos_as_xyz
  1  'x, y, z'
loop_
 _atom_site_type_symbol
 _atom_site_label
 _atom_site_symmetry_multiplicity
 _atom_site_fract_x
 _atom_site_fract_y
 _atom_site_fract_z
 _atom_site_occupancy
  C  C0  1  0.70237765  0.00000000  0.90787198  1
  C  C1  1  0.49731424  0.00000000  0.49843358  1
  C  C2  1  0.60098723  0.50000000  0.19799177  1
  C  C3  1  0.89542337  0.00000000  0.29238185  1
  C  C4  1  0.00126495  0.50000000  0.00824440  1
  C  C5  1  0.29896607  0.00000000  0.09713623  1
  C  C6  1  0.40482972  0.50000000  0.80398849  1
  C  C7  1  0.79609074  0.50000000  0.59973500  1
  C  C8  1  0.10379725  0.00000000  0.70263435  1
  C  C9  1  0.19735960  0.50000000  0.39273843  1
  Hf  Hf10  1  0.80073701  0.00000000  0.59841689  1
  Hf  Hf11  1  0.10147795  0.50000000  0.70529947  1
  Nb  Nb12  1  0.49618383  0.50000000  0.49087840  1
  Nb  Nb13  1  0.20297886  0.00000000  0.39239134  1
  Ta  Ta14  1  0.39910074  0.00000000  0.80472320  1
  Ta  Ta15  1  0.70150220  0.50000000  0.90566401  1
  Ti  Ti16  1  0.29658952  0.50000000  0.10068718  1
  Ti  Ti17  1  0.00542840  0.00000000  0.00639733  1
  W  W18  1  0.58687836  0.00000000  0.19588061  1
  W  W19  1  0.91071232  0.50000000  0.29850550  1
