# generated using pymatgen
data_HfTaTiNbWC5
_symmetry_space_group_name_H-M   'P 1'
_cell_length_a   7.08340700
_cell_length_b   4.49378600
_cell_length_c   7.08591900
_cell_angle_alpha   90.00000000
_cell_angle_beta   90.00000000
_cell_angle_gamma   90.00000000
_symmetry_Int_Tables_number   1
_chemical_formula_structural   HfTaTiNbWC5
_chemical_formula_sum   'Hf2 Ta2 Ti2 Nb2 W2 C10'
_cell_volume   225.55412123
_cell_formula_units_Z   2
loop_
 _symmetry_equiv_pos_site_id
 _symmetry_equiv_pos_as_xyz
  1  'x, y, z'
loop_
 _atom_site_type_symbol
 _atom_site_label
 _atom_site_symmetry_multiplicity
 _atom_site_fract_x
 _atom_site_fract_y
 _atom_site_fract_z
 _atom_site_occupancy
  C  C0  1  0.70233602  0.00000000  0.90787425  1
  C  C1  1  0.49731592  0.00000000  0.49841739  1
  C  C2  1  0.60100880  0.50000000  0.19799101  1
  C  C3  1  0.89543842  0.00000000  0.29239420  1
  C  C4  1  0.00123669  0.50000000  0.00826128  1
  C  C5  1  0.29898215  0.00000000  0.09713417  1
  C  C6  1  0.40482934  0.50000000  0.80397729  1
  C  C7  1  0.79609296  0.50000000  0.59973510  1
  C  C8  1  0.10380237  0.00000000  0.70263054  1
  C  C9  1  0.19736303  0.50000000  0.39274449  1
  Hf  Hf10  1  0.80073645  0.00000000  0.59842113  1
  Hf  Hf11  1  0.10147621  0.50000000  0.70531846  1
  Nb  Nb12  1  0.49619137  0.50000000  0.49083772  1
  Nb  Nb13  1  0.20300541  0.00000000  0.39237324  1
  Ta  Ta14  1  0.39907747  0.00000000  0.80473481  1
  Ta  Ta15  1  0.70146084  0.50000000  0.90568799  1
  Ti  Ti16  1  0.29658188  0.50000000  0.10069249  1
  Ti  Ti17  1  0.00542519  0.00000000  0.00642317  1
  W  W18  1  0.58684994  0.00000000  0.19585169  1
  W  W19  1  0.91078955  0.50000000  0.29849960  1
