# generated using pymatgen
data_HfTaTiNbWC5
_symmetry_space_group_name_H-M   'P 1'
_cell_length_a   7.07223000
_cell_length_b   4.48260900
_cell_length_c   7.07474200
_cell_angle_alpha   90.00000000
_cell_angle_beta   90.00000000
_cell_angle_gamma   90.00000000
_symmetry_Int_Tables_number   1
_chemical_formula_structural   HfTaTiNbWC5
_chemical_formula_sum   'Hf2 Ta2 Ti2 Nb2 W2 C10'
_cell_volume   224.28376695
_cell_formula_units_Z   2
loop_
 _symmetry_equiv_pos_site_id
 _symmetry_equiv_pos_as_xyz
  1  'x, y, z'
loop_
 _atom_site_type_symbol
 _atom_site_label
 _atom_site_symmetry_multiplicity
 _atom_site_fract_x
 _atom_site_fract_y
 _atom_site_fract_z
 _atom_site_occupancy
  C  C0  1  0.70253329  0.00000000  0.90786582  1
  C  C1  1  0.49731305  0.00000000  0.49849066  1
  C  C2  1  0.60091344  0.50000000  0.19799398  1
  C  C3  1  0.89538404  0.00000000  0.29233485  1
  C  C4  1  0.00136840  0.50000000  0.00819070  1
  C  C5  1  0.29889335  0.00000000  0.09714149  1
  C  C6  1  0.40482896  0.50000000  0.80402747  1
  C  C7  1  0.79608356  0.50000000  0.59972904  1
  C  C8  1  0.10375857  0.00000000  0.70266016  1
  C  C9  1  0.19734149  0.50000000  0.39272089  1
  Hf  Hf10  1  0.80073452  0.00000000  0.59842269  1
  Hf  Hf11  1  0.10149314  0.50000000  0.70521555  1
  Nb  Nb12  1  0.49616531  0.50000000  0.49104607  1
  Nb  Nb13  1  0.20287796  0.00000000  0.39245660  1
  Ta  Ta14  1  0.39920090  0.00000000  0.80468113  1
  Ta  Ta15  1  0.70165519  0.50000000  0.90556552  1
  Ti  Ti16  1  0.29662969  0.50000000  0.10067182  1
  Ti  Ti17  1  0.00543006  0.00000000  0.00626614  1
  W  W18  1  0.58698420  0.00000000  0.19598829  1
  W  W19  1  0.91041087  0.50000000  0.29853114  1
