# generated using pymatgen
data_Ti4C3
_symmetry_space_group_name_H-M   'P 1'
_cell_length_a   6.86556943
_cell_length_b   6.85985275
_cell_length_c   8.09636673
_cell_angle_alpha   75.19037744
_cell_angle_beta   64.85723111
_cell_angle_gamma   72.34026689
_symmetry_Int_Tables_number   1
_chemical_formula_structural   Ti4C3
_chemical_formula_sum   'Ti16 C12'
_cell_volume   325.34900536
_cell_formula_units_Z   4
loop_
 _symmetry_equiv_pos_site_id
 _symmetry_equiv_pos_as_xyz
  1  'x, y, z'
loop_
 _atom_site_type_symbol
 _atom_site_label
 _atom_site_symmetry_multiplicity
 _atom_site_fract_x
 _atom_site_fract_y
 _atom_site_fract_z
 _atom_site_occupancy
  Ti  Ti0  1  0.84173424  0.41167466  0.47900521  1
  Ti  Ti1  1  0.15419475  0.59671315  0.52994066  1
  Ti  Ti2  1  0.27642793  0.47823240  0.16112984  1
  Ti  Ti3  1  0.47159496  0.78343675  0.59192443  1
  Ti  Ti4  1  0.77365736  0.96485814  0.66921833  1
  Ti  Ti5  1  0.09244028  0.15644242  0.71910579  1
  Ti  Ti6  1  0.57755160  0.67154078  0.22289245  1
  Ti  Ti7  1  0.90757552  0.84681701  0.28294285  1
  Ti  Ti8  1  0.22423879  0.02407332  0.35433732  1
  Ti  Ti9  1  0.41212450  0.34885161  0.76976061  1
  Ti  Ti10  1  0.72284227  0.53437224  0.83406009  1
  Ti  Ti11  1  0.04001216  0.71921561  0.89288681  1
  Ti  Ti12  1  0.34096754  0.89200853  0.96605023  1
  Ti  Ti13  1  0.51192707  0.21785470  0.41592278  1
  Ti  Ti14  1  0.67563926  0.07862432  0.02774723  1
  Ti  Ti15  1  0.97305616  0.27681090  0.08280004  1
  C  C16  1  0.05924812  0.43566059  0.82072968  1
  C  C17  1  0.37388893  0.62009499  0.88018107  1
  C  C18  1  0.51199496  0.49296561  0.49128156  1
  C  C19  1  0.68745946  0.81153042  0.94119857  1
  C  C20  1  0.99807465  0.00124079  0.00357165  1
  C  C21  1  0.81241895  0.68717834  0.56203709  1
  C  C22  1  0.12505261  0.87457090  0.62397049  1
  C  C23  1  0.43939387  0.06389082  0.68714513  1
  C  C24  1  0.25001651  0.75408105  0.24888136  1
  C  C25  1  0.56177772  0.94299549  0.30931854  1
  C  C26  1  0.74651337  0.25060472  0.75137880  1
  C  C27  1  0.18556103  0.31244532  0.43035648  1
