# generated using pymatgen
data_HfTaTiNbWC5
_symmetry_space_group_name_H-M   'P 1'
_cell_length_a   7.10620600
_cell_length_b   4.51658500
_cell_length_c   7.10871800
_cell_angle_alpha   90.00000000
_cell_angle_beta   90.00000000
_cell_angle_gamma   90.00000000
_symmetry_Int_Tables_number   1
_chemical_formula_structural   HfTaTiNbWC5
_chemical_formula_sum   'Hf2 Ta2 Ti2 Nb2 W2 C10'
_cell_volume   228.15987337
_cell_formula_units_Z   2
loop_
 _symmetry_equiv_pos_site_id
 _symmetry_equiv_pos_as_xyz
  1  'x, y, z'
loop_
 _atom_site_type_symbol
 _atom_site_label
 _atom_site_symmetry_multiplicity
 _atom_site_fract_x
 _atom_site_fract_y
 _atom_site_fract_z
 _atom_site_occupancy
  C  C0  1  0.70190445  0.00000000  0.90790007  1
  C  C1  1  0.49732470  0.00000000  0.49826206  1
  C  C2  1  0.60120963  0.50000000  0.19798525  1
  C  C3  1  0.89557284  0.00000000  0.29251697  1
  C  C4  1  0.00096698  0.50000000  0.00841478  1
  C  C5  1  0.29913893  0.00000000  0.09711185  1
  C  C6  1  0.40484038  0.50000000  0.80386791  1
  C  C7  1  0.79612376  0.50000000  0.59974931  1
  C  C8  1  0.10389152  0.00000000  0.70257105  1
  C  C9  1  0.19740652  0.50000000  0.39280391  1
  Hf  Hf10  1  0.80073799  0.00000000  0.59840408  1
  Hf  Hf11  1  0.10143830  0.50000000  0.70555255  1
  Nb  Nb12  1  0.49622958  0.50000000  0.49037912  1
  Nb  Nb13  1  0.20327721  0.00000000  0.39220422  1
  Ta  Ta14  1  0.39881936  0.00000000  0.80484739  1
  Ta  Ta15  1  0.70104245  0.50000000  0.90595790  1
  Ti  Ti16  1  0.29649154  0.50000000  0.10073403  1
  Ti  Ti17  1  0.00542971  0.00000000  0.00676199  1
  W  W18  1  0.58650512  0.00000000  0.19554547  1
  W  W19  1  0.91164905  0.50000000  0.29843010  1
