# generated using pymatgen
data_HfTaTiNbWC5
_symmetry_space_group_name_H-M   'P 1'
_cell_length_a   7.10819300
_cell_length_b   4.51857200
_cell_length_c   7.11070500
_cell_angle_alpha   90.00000000
_cell_angle_beta   90.00000000
_cell_angle_gamma   90.00000000
_symmetry_Int_Tables_number   1
_chemical_formula_structural   HfTaTiNbWC5
_chemical_formula_sum   'Hf2 Ta2 Ti2 Nb2 W2 C10'
_cell_volume   228.38789384
_cell_formula_units_Z   2
loop_
 _symmetry_equiv_pos_site_id
 _symmetry_equiv_pos_as_xyz
  1  'x, y, z'
loop_
 _atom_site_type_symbol
 _atom_site_label
 _atom_site_symmetry_multiplicity
 _atom_site_fract_x
 _atom_site_fract_y
 _atom_site_fract_z
 _atom_site_occupancy
  C  C0  1  0.70186853  0.00000000  0.90790202  1
  C  C1  1  0.49732613  0.00000000  0.49825088  1
  C  C2  1  0.60122883  0.50000000  0.19798784  1
  C  C3  1  0.89558310  0.00000000  0.29252375  1
  C  C4  1  0.00094310  0.50000000  0.00842447  1
  C  C5  1  0.29914989  0.00000000  0.09711201  1
  C  C6  1  0.40484024  0.50000000  0.80386211  1
  C  C7  1  0.79612399  0.50000000  0.59975248  1
  C  C8  1  0.10390465  0.00000000  0.70256230  1
  C  C9  1  0.19740750  0.50000000  0.39280781  1
  Hf  Hf10  1  0.80073920  0.00000000  0.59839957  1
  Hf  Hf11  1  0.10143228  0.50000000  0.70556679  1
  Nb  Nb12  1  0.49622433  0.50000000  0.49034537  1
  Nb  Nb13  1  0.20330853  0.00000000  0.39219199  1
  Ta  Ta14  1  0.39879320  0.00000000  0.80485772  1
  Ta  Ta15  1  0.70101007  0.50000000  0.90598062  1
  Ti  Ti16  1  0.29648064  0.50000000  0.10073722  1
  Ti  Ti17  1  0.00544211  0.00000000  0.00679954  1
  W  W18  1  0.58647097  0.00000000  0.19551481  1
  W  W19  1  0.91172270  0.50000000  0.29842073  1
