# generated using pymatgen
data_HfTaTiNbWC5
_symmetry_space_group_name_H-M   'P 1'
_cell_length_a   7.09739300
_cell_length_b   4.50777200
_cell_length_c   7.09990500
_cell_angle_alpha   90.00000000
_cell_angle_beta   90.00000000
_cell_angle_gamma   90.00000000
_symmetry_Int_Tables_number   1
_chemical_formula_structural   HfTaTiNbWC5
_chemical_formula_sum   'Hf2 Ta2 Ti2 Nb2 W2 C10'
_cell_volume   227.15030964
_cell_formula_units_Z   2
loop_
 _symmetry_equiv_pos_site_id
 _symmetry_equiv_pos_as_xyz
  1  'x, y, z'
loop_
 _atom_site_type_symbol
 _atom_site_label
 _atom_site_symmetry_multiplicity
 _atom_site_fract_x
 _atom_site_fract_y
 _atom_site_fract_z
 _atom_site_occupancy
  C  C0  1  0.70207149  0.00000000  0.90788580  1
  C  C1  1  0.49731935  0.00000000  0.49832394  1
  C  C2  1  0.60113856  0.50000000  0.19798718  1
  C  C3  1  0.89552010  0.00000000  0.29246897  1
  C  C4  1  0.00107136  0.50000000  0.00835375  1
  C  C5  1  0.29908129  0.00000000  0.09712562  1
  C  C6  1  0.40483588  0.50000000  0.80390607  1
  C  C7  1  0.79610982  0.50000000  0.59974342  1
  C  C8  1  0.10385383  0.00000000  0.70259493  1
  C  C9  1  0.19739065  0.50000000  0.39278361  1
  Hf  Hf10  1  0.80073646  0.00000000  0.59840959  1
  Hf  Hf11  1  0.10145164  0.50000000  0.70546337  1
  Nb  Nb12  1  0.49621635  0.50000000  0.49055794  1
  Nb  Nb13  1  0.20317166  0.00000000  0.39226636  1
  Ta  Ta14  1  0.39891855  0.00000000  0.80480924  1
  Ta  Ta15  1  0.70120573  0.50000000  0.90585252  1
  Ti  Ti16  1  0.29652031  0.50000000  0.10071915  1
  Ti  Ti17  1  0.00542111  0.00000000  0.00662693  1
  W  W18  1  0.58665178  0.00000000  0.19566566  1
  W  W19  1  0.91131406  0.50000000  0.29845597  1
