# generated using pymatgen
data_HfTaTiNbWC5
_symmetry_space_group_name_H-M   'P 1'
_cell_length_a   7.10365000
_cell_length_b   4.51402900
_cell_length_c   7.10616200
_cell_angle_alpha   90.00000000
_cell_angle_beta   90.00000000
_cell_angle_gamma   90.00000000
_symmetry_Int_Tables_number   1
_chemical_formula_structural   HfTaTiNbWC5
_chemical_formula_sum   'Hf2 Ta2 Ti2 Nb2 W2 C10'
_cell_volume   227.86677415
_cell_formula_units_Z   2
loop_
 _symmetry_equiv_pos_site_id
 _symmetry_equiv_pos_as_xyz
  1  'x, y, z'
loop_
 _atom_site_type_symbol
 _atom_site_label
 _atom_site_symmetry_multiplicity
 _atom_site_fract_x
 _atom_site_fract_y
 _atom_site_fract_z
 _atom_site_occupancy
  C  C0  1  0.70195235  0.00000000  0.90789444  1
  C  C1  1  0.49732339  0.00000000  0.49828218  1
  C  C2  1  0.60119109  0.50000000  0.19798471  1
  C  C3  1  0.89555710  0.00000000  0.29250202  1
  C  C4  1  0.00099475  0.50000000  0.00839588  1
  C  C5  1  0.29912367  0.00000000  0.09711787  1
  C  C6  1  0.40483934  0.50000000  0.80387919  1
  C  C7  1  0.79612187  0.50000000  0.59974852  1
  C  C8  1  0.10388197  0.00000000  0.70257939  1
  C  C9  1  0.19740062  0.50000000  0.39279668  1
  Hf  Hf10  1  0.80073715  0.00000000  0.59840706  1
  Hf  Hf11  1  0.10144268  0.50000000  0.70552540  1
  Nb  Nb12  1  0.49622649  0.50000000  0.49043002  1
  Nb  Nb13  1  0.20324622  0.00000000  0.39222224  1
  Ta  Ta14  1  0.39884691  0.00000000  0.80483969  1
  Ta  Ta15  1  0.70108964  0.50000000  0.90592436  1
  Ti  Ti16  1  0.29649709  0.50000000  0.10072835  1
  Ti  Ti17  1  0.00542625  0.00000000  0.00672269  1
  W  W18  1  0.58655294  0.00000000  0.19558304  1
  W  W19  1  0.91154849  0.50000000  0.29843629  1
