# generated using pymatgen
data_HfTaTiNbWC5
_symmetry_space_group_name_H-M   'P 1'
_cell_length_a   7.09340400
_cell_length_b   4.50378300
_cell_length_c   7.09591600
_cell_angle_alpha   90.00000000
_cell_angle_beta   90.00000000
_cell_angle_gamma   90.00000000
_symmetry_Int_Tables_number   1
_chemical_formula_structural   HfTaTiNbWC5
_chemical_formula_sum   'Hf2 Ta2 Ti2 Nb2 W2 C10'
_cell_volume   226.69430950
_cell_formula_units_Z   2
loop_
 _symmetry_equiv_pos_site_id
 _symmetry_equiv_pos_as_xyz
  1  'x, y, z'
loop_
 _atom_site_type_symbol
 _atom_site_label
 _atom_site_symmetry_multiplicity
 _atom_site_fract_x
 _atom_site_fract_y
 _atom_site_fract_z
 _atom_site_occupancy
  C  C0  1  0.70214530  0.00000000  0.90788353  1
  C  C1  1  0.49731772  0.00000000  0.49835140  1
  C  C2  1  0.60110185  0.50000000  0.19798915  1
  C  C3  1  0.89549646  0.00000000  0.29244763  1
  C  C4  1  0.00111915  0.50000000  0.00833006  1
  C  C5  1  0.29904881  0.00000000  0.09712638  1
  C  C6  1  0.40483729  0.50000000  0.80392526  1
  C  C7  1  0.79610936  0.50000000  0.59974394  1
  C  C8  1  0.10383852  0.00000000  0.70260435  1
  C  C9  1  0.19738117  0.50000000  0.39277376  1
  Hf  Hf10  1  0.80073572  0.00000000  0.59841440  1
  Hf  Hf11  1  0.10146111  0.50000000  0.70542308  1
  Nb  Nb12  1  0.49620709  0.50000000  0.49063806  1
  Nb  Nb13  1  0.20312176  0.00000000  0.39229754  1
  Ta  Ta14  1  0.39896518  0.00000000  0.80478424  1
  Ta  Ta15  1  0.70128055  0.50000000  0.90580329  1
  Ti  Ti16  1  0.29654292  0.50000000  0.10070926  1
  Ti  Ti17  1  0.00542655  0.00000000  0.00656658  1
  W  W18  1  0.58669881  0.00000000  0.19571764  1
  W  W19  1  0.91116466  0.50000000  0.29847043  1
