# generated using pymatgen
data_HfTaTiNbWC5
_symmetry_space_group_name_H-M   'P 1'
_cell_length_a   7.09511300
_cell_length_b   4.50549200
_cell_length_c   7.09762500
_cell_angle_alpha   90.00000000
_cell_angle_beta   90.00000000
_cell_angle_gamma   90.00000000
_symmetry_Int_Tables_number   1
_chemical_formula_structural   HfTaTiNbWC5
_chemical_formula_sum   'Hf2 Ta2 Ti2 Nb2 W2 C10'
_cell_volume   226.88959994
_cell_formula_units_Z   2
loop_
 _symmetry_equiv_pos_site_id
 _symmetry_equiv_pos_as_xyz
  1  'x, y, z'
loop_
 _atom_site_type_symbol
 _atom_site_label
 _atom_site_symmetry_multiplicity
 _atom_site_fract_x
 _atom_site_fract_y
 _atom_site_fract_z
 _atom_site_occupancy
  C  C0  1  0.70211239  0.00000000  0.90788464  1
  C  C1  1  0.49731913  0.00000000  0.49833804  1
  C  C2  1  0.60111658  0.50000000  0.19798738  1
  C  C3  1  0.89550298  0.00000000  0.29245595  1
  C  C4  1  0.00109682  0.50000000  0.00834147  1
  C  C5  1  0.29906448  0.00000000  0.09712568  1
  C  C6  1  0.40483771  0.50000000  0.80391621  1
  C  C7  1  0.79610997  0.50000000  0.59974345  1
  C  C8  1  0.10384535  0.00000000  0.70260066  1
  C  C9  1  0.19738642  0.50000000  0.39277752  1
  Hf  Hf10  1  0.80073723  0.00000000  0.59841156  1
  Hf  Hf11  1  0.10145788  0.50000000  0.70544057  1
  Nb  Nb12  1  0.49621319  0.50000000  0.49060094  1
  Nb  Nb13  1  0.20314450  0.00000000  0.39228321  1
  Ta  Ta14  1  0.39894404  0.00000000  0.80479677  1
  Ta  Ta15  1  0.70124793  0.50000000  0.90582396  1
  Ti  Ti16  1  0.29653441  0.50000000  0.10071597  1
  Ti  Ti17  1  0.00542340  0.00000000  0.00659254  1
  W  W18  1  0.58667699  0.00000000  0.19569711  1
  W  W19  1  0.91122859  0.50000000  0.29846639  1
