# generated using pymatgen
data_Ti6Ni2C5
_symmetry_space_group_name_H-M   'P 1'
_cell_length_a   9.51342983
_cell_length_b   9.35524298
_cell_length_c   9.46882109
_cell_angle_alpha   111.51106014
_cell_angle_beta   112.75593906
_cell_angle_gamma   51.94212147
_symmetry_Int_Tables_number   1
_chemical_formula_structural   Ti6Ni2C5
_chemical_formula_sum   'Ti24 Ni8 C20'
_cell_volume   602.28694560
_cell_formula_units_Z   4
loop_
 _symmetry_equiv_pos_site_id
 _symmetry_equiv_pos_as_xyz
  1  'x, y, z'
loop_
 _atom_site_type_symbol
 _atom_site_label
 _atom_site_symmetry_multiplicity
 _atom_site_fract_x
 _atom_site_fract_y
 _atom_site_fract_z
 _atom_site_occupancy
  C  C0  1  0.37126802  0.87192551  0.50252640  1
  C  C1  1  0.43513804  0.95116984  0.24439214  1
  C  C2  1  0.54333322  0.07603526  0.74349083  1
  C  C3  1  0.45548583  0.43396275  0.74307104  1
  C  C4  1  0.79556950  0.82505156  0.23810986  1
  C  C5  1  0.57049986  0.55987587  0.24852018  1
  C  C6  1  0.74984169  0.25170565  0.00354563  1
  C  C7  1  0.92801881  0.94433441  0.73720296  1
  C  C8  1  0.68797093  0.68634582  0.75429874  1
  C  C9  1  0.97714236  0.00718970  0.47310790  1
  C  C10  1  0.88313970  0.35269080  0.52239893  1
  C  C11  1  0.06286975  0.06661372  0.23807454  1
  C  C12  1  0.75339015  0.74407188  0.49685384  1
  C  C13  1  0.01584579  0.49935725  0.02097303  1
  C  C14  1  0.16662587  0.15453362  0.88593785  1
  C  C15  1  0.07380837  0.55784177  0.75743144  1
  C  C16  1  0.26957682  0.23575815  0.50932652  1
  C  C17  1  0.12948038  0.61294603  0.49221994  1
  C  C18  1  0.19652987  0.68070898  0.25045728  1
  C  C19  1  0.25479255  0.75516763  0.99070493  1
  Ni  Ni20  1  0.44237266  0.44963935  0.24336484  1
  Ni  Ni21  1  0.49400251  0.98489121  0.48895105  1
  Ni  Ni22  1  0.69067165  0.18370365  0.77301857  1
  Ni  Ni23  1  0.73212894  0.24267642  0.45925213  1
  Ni  Ni24  1  0.05267422  0.58579585  0.25285836  1
  Ni  Ni25  1  0.11316349  0.11487804  0.47561381  1
  Ni  Ni26  1  0.26165372  0.27943181  0.05247342  1
  Ni  Ni27  1  0.32439353  0.33117100  0.74056002  1
  Ti  Ti28  1  0.38677889  0.37050829  0.50634659  1
  Ti  Ti29  1  0.51441227  0.50950010  0.99738364  1
  Ti  Ti30  1  0.33991316  0.92299792  0.99464072  1
  Ti  Ti31  1  0.60442006  0.52253076  0.74641781  1
  Ti  Ti32  1  0.42634641  0.94630194  0.73718261  1
  Ti  Ti33  1  0.63434177  0.61631313  0.50027792  1
  Ti  Ti34  1  0.68384288  0.70032157  0.25903047  1
  Ti  Ti35  1  0.91959038  0.33953020  0.00413549  1
  Ti  Ti36  1  0.55340453  0.08075838  0.23782495  1
  Ti  Ti37  1  0.76183318  0.73406654  0.99866759  1
  Ti  Ti38  1  0.96974496  0.42927011  0.77141011  1
  Ti  Ti39  1  0.57907301  0.16703903  0.98539919  1
  Ti  Ti40  1  0.79962017  0.82034438  0.73609332  1
  Ti  Ti41  1  0.01436111  0.48400631  0.51438194  1
  Ti  Ti42  1  0.87132177  0.87025266  0.48885894  1
  Ti  Ti43  1  0.94288607  0.92520269  0.23663572  1
  Ti  Ti44  1  0.16131021  0.59592939  0.00430067  1
  Ti  Ti45  1  0.80532198  0.30270823  0.25029629  1
  Ti  Ti46  1  0.98927650  0.99288807  0.98771590  1
  Ti  Ti47  1  0.18663594  0.68422888  0.74607714  1
  Ti  Ti48  1  0.99739845  0.09756113  0.70857353  1
  Ti  Ti49  1  0.23270195  0.76064524  0.48540439  1
  Ti  Ti50  1  0.31512941  0.80985099  0.24270279  1
  Ti  Ti51  1  0.19144670  0.19027053  0.27150606  1
