# generated using pymatgen
data_HfTaTiNbWC5
_symmetry_space_group_name_H-M   'P 1'
_cell_length_a   7.09967000
_cell_length_b   4.51004900
_cell_length_c   7.10218200
_cell_angle_alpha   90.00000000
_cell_angle_beta   90.00000000
_cell_angle_gamma   90.00000000
_symmetry_Int_Tables_number   1
_chemical_formula_structural   HfTaTiNbWC5
_chemical_formula_sum   'Hf2 Ta2 Ti2 Nb2 W2 C10'
_cell_volume   227.41087038
_cell_formula_units_Z   2
loop_
 _symmetry_equiv_pos_site_id
 _symmetry_equiv_pos_as_xyz
  1  'x, y, z'
loop_
 _atom_site_type_symbol
 _atom_site_label
 _atom_site_symmetry_multiplicity
 _atom_site_fract_x
 _atom_site_fract_y
 _atom_site_fract_z
 _atom_site_occupancy
  C  C0  1  0.70203861  0.00000000  0.90788471  1
  C  C1  1  0.49732698  0.00000000  0.49831509  1
  C  C2  1  0.60115548  0.50000000  0.19799389  1
  C  C3  1  0.89553207  0.00000000  0.29246786  1
  C  C4  1  0.00104085  0.50000000  0.00835813  1
  C  C5  1  0.29908474  0.00000000  0.09712515  1
  C  C6  1  0.40482858  0.50000000  0.80390357  1
  C  C7  1  0.79610922  0.50000000  0.59975244  1
  C  C8  1  0.10386915  0.00000000  0.70258217  1
  C  C9  1  0.19739599  0.50000000  0.39278527  1
  Hf  Hf10  1  0.80073238  0.00000000  0.59840972  1
  Hf  Hf11  1  0.10144268  0.50000000  0.70547131  1
  Nb  Nb12  1  0.49619963  0.50000000  0.49053599  1
  Nb  Nb13  1  0.20321558  0.00000000  0.39226044  1
  Ta  Ta14  1  0.39888786  0.00000000  0.80482370  1
  Ta  Ta15  1  0.70117880  0.50000000  0.90586997  1
  Ti  Ti16  1  0.29651077  0.50000000  0.10071398  1
  Ti  Ti17  1  0.00544316  0.00000000  0.00666465  1
  W  W18  1  0.58661773  0.00000000  0.19562651  1
  W  W19  1  0.91138978  0.50000000  0.29845544  1
