# generated using pymatgen
data_HfTaTiNbWC5
_symmetry_space_group_name_H-M   'P 1'
_cell_length_a   7.08912300
_cell_length_b   4.49950200
_cell_length_c   7.09163500
_cell_angle_alpha   90.00000000
_cell_angle_beta   90.00000000
_cell_angle_gamma   90.00000000
_symmetry_Int_Tables_number   1
_chemical_formula_structural   HfTaTiNbWC5
_chemical_formula_sum   'Hf2 Ta2 Ti2 Nb2 W2 C10'
_cell_volume   226.20559135
_cell_formula_units_Z   2
loop_
 _symmetry_equiv_pos_site_id
 _symmetry_equiv_pos_as_xyz
  1  'x, y, z'
loop_
 _atom_site_type_symbol
 _atom_site_label
 _atom_site_symmetry_multiplicity
 _atom_site_fract_x
 _atom_site_fract_y
 _atom_site_fract_z
 _atom_site_occupancy
  C  C0  1  0.70222443  0.00000000  0.90788159  1
  C  C1  1  0.49731312  0.00000000  0.49837768  1
  C  C2  1  0.60105758  0.50000000  0.19798399  1
  C  C3  1  0.89546852  0.00000000  0.29243033  1
  C  C4  1  0.00117011  0.50000000  0.00830319  1
  C  C5  1  0.29902928  0.00000000  0.09712836  1
  C  C6  1  0.40483647  0.50000000  0.80394370  1
  C  C7  1  0.79610465  0.50000000  0.59973894  1
  C  C8  1  0.10382244  0.00000000  0.70261938  1
  C  C9  1  0.19737262  0.50000000  0.39275836  1
  Hf  Hf10  1  0.80074032  0.00000000  0.59841950  1
  Hf  Hf11  1  0.10147041  0.50000000  0.70538462  1
  Nb  Nb12  1  0.49621183  0.50000000  0.49071405  1
  Nb  Nb13  1  0.20306251  0.00000000  0.39232534  1
  Ta  Ta14  1  0.39901538  0.00000000  0.80476406  1
  Ta  Ta15  1  0.70135507  0.50000000  0.90575243  1
  Ti  Ti16  1  0.29655859  0.50000000  0.10070482  1
  Ti  Ti17  1  0.00541750  0.00000000  0.00650372  1
  W  W18  1  0.58676974  0.00000000  0.19578408  1
  W  W19  1  0.91099942  0.50000000  0.29848186  1
