# generated using pymatgen
data_HfTaTiNbWC5
_symmetry_space_group_name_H-M   'P 1'
_cell_length_a   7.09112100
_cell_length_b   4.50150000
_cell_length_c   7.09363300
_cell_angle_alpha   90.00000000
_cell_angle_beta   90.00000000
_cell_angle_gamma   90.00000000
_symmetry_Int_Tables_number   1
_chemical_formula_structural   HfTaTiNbWC5
_chemical_formula_sum   'Hf2 Ta2 Ti2 Nb2 W2 C10'
_cell_volume   226.43359741
_cell_formula_units_Z   2
loop_
 _symmetry_equiv_pos_site_id
 _symmetry_equiv_pos_as_xyz
  1  'x, y, z'
loop_
 _atom_site_type_symbol
 _atom_site_label
 _atom_site_symmetry_multiplicity
 _atom_site_fract_x
 _atom_site_fract_y
 _atom_site_fract_z
 _atom_site_occupancy
  C  C0  1  0.70219016  0.00000000  0.90788410  1
  C  C1  1  0.49731615  0.00000000  0.49836689  1
  C  C2  1  0.60107572  0.50000000  0.19798586  1
  C  C3  1  0.89548075  0.00000000  0.29243989  1
  C  C4  1  0.00114355  0.50000000  0.00831489  1
  C  C5  1  0.29904186  0.00000000  0.09712826  1
  C  C6  1  0.40483545  0.50000000  0.80393429  1
  C  C7  1  0.79610765  0.50000000  0.59974070  1
  C  C8  1  0.10383173  0.00000000  0.70261306  1
  C  C9  1  0.19737348  0.50000000  0.39276103  1
  Hf  Hf10  1  0.80074085  0.00000000  0.59841854  1
  Hf  Hf11  1  0.10146600  0.50000000  0.70540028  1
  Nb  Nb12  1  0.49621156  0.50000000  0.49067970  1
  Nb  Nb13  1  0.20309065  0.00000000  0.39231302  1
  Ta  Ta14  1  0.39899321  0.00000000  0.80477525  1
  Ta  Ta15  1  0.70132144  0.50000000  0.90577462  1
  Ti  Ti16  1  0.29655011  0.50000000  0.10070357  1
  Ti  Ti17  1  0.00541974  0.00000000  0.00653308  1
  W  W18  1  0.58674206  0.00000000  0.19575689  1
  W  W19  1  0.91106786  0.50000000  0.29847609  1
