# generated using pymatgen
data_HfTaTiNbWC5
_symmetry_space_group_name_H-M   'P 1'
_cell_length_a   7.11046200
_cell_length_b   4.52084100
_cell_length_c   7.11297400
_cell_angle_alpha   90.00000000
_cell_angle_beta   90.00000000
_cell_angle_gamma   90.00000000
_symmetry_Int_Tables_number   1
_chemical_formula_structural   HfTaTiNbWC5
_chemical_formula_sum   'Hf2 Ta2 Ti2 Nb2 W2 C10'
_cell_volume   228.64845649
_cell_formula_units_Z   2
loop_
 _symmetry_equiv_pos_site_id
 _symmetry_equiv_pos_as_xyz
  1  'x, y, z'
loop_
 _atom_site_type_symbol
 _atom_site_label
 _atom_site_symmetry_multiplicity
 _atom_site_fract_x
 _atom_site_fract_y
 _atom_site_fract_z
 _atom_site_occupancy
  C  C0  1  0.70182134  0.00000000  0.90790551  1
  C  C1  1  0.49732483  0.00000000  0.49823084  1
  C  C2  1  0.60124557  0.50000000  0.19798396  1
  C  C3  1  0.89559791  0.00000000  0.29253965  1
  C  C4  1  0.00091652  0.50000000  0.00844196  1
  C  C5  1  0.29916910  0.00000000  0.09711156  1
  C  C6  1  0.40484160  0.50000000  0.80384997  1
  C  C7  1  0.79612976  0.50000000  0.59974689  1
  C  C8  1  0.10391184  0.00000000  0.70255773  1
  C  C9  1  0.19741452  0.50000000  0.39281231  1
  Hf  Hf10  1  0.80073934  0.00000000  0.59839850  1
  Hf  Hf11  1  0.10142936  0.50000000  0.70559758  1
  Nb  Nb12  1  0.49623512  0.50000000  0.49029305  1
  Nb  Nb13  1  0.20333118  0.00000000  0.39217487  1
  Ta  Ta14  1  0.39876837  0.00000000  0.80486715  1
  Ta  Ta15  1  0.70096259  0.50000000  0.90601092  1
  Ti  Ti16  1  0.29647377  0.50000000  0.10074232  1
  Ti  Ti17  1  0.00543430  0.00000000  0.00683712  1
  W  W18  1  0.58643716  0.00000000  0.19548580  1
  W  W19  1  0.91181583  0.50000000  0.29841233  1
