# generated using pymatgen
data_Mg4Ti2AlV
_symmetry_space_group_name_H-M   'P 1'
_cell_length_a   9.75259995
_cell_length_b   9.60993904
_cell_length_c   6.44101192
_cell_angle_alpha   90.61147381
_cell_angle_beta   89.33218606
_cell_angle_gamma   87.37571316
_symmetry_Int_Tables_number   1
_chemical_formula_structural   Mg4Ti2AlV
_chemical_formula_sum   'Mg16 Ti8 Al4 V4'
_cell_volume   602.95182049
_cell_formula_units_Z   4
loop_
 _symmetry_equiv_pos_site_id
 _symmetry_equiv_pos_as_xyz
  1  'x, y, z'
loop_
 _atom_site_type_symbol
 _atom_site_label
 _atom_site_symmetry_multiplicity
 _atom_site_fract_x
 _atom_site_fract_y
 _atom_site_fract_z
 _atom_site_occupancy
  Al  Al0  1  0.50812948  0.24864445  0.73222406  1
  Al  Al1  1  0.55205258  0.51127719  0.48632660  1
  Al  Al2  1  0.72496359  0.24884710  0.01315105  1
  Al  Al3  1  0.97667652  0.96397136  0.01372606  1
  Mg  Mg4  1  0.23828736  0.99290955  0.76720422  1
  Mg  Mg5  1  0.75152295  0.25305654  0.48763903  1
  Mg  Mg6  1  0.78612009  0.49764877  0.75591145  1
  Mg  Mg7  1  0.98672803  0.22542488  0.76760960  1
  Mg  Mg8  1  0.24672057  0.99803215  0.24452705  1
  Mg  Mg9  1  0.25375973  0.24216829  0.50493598  1
  Mg  Mg10  1  0.28781971  0.50893108  0.75309607  1
  Mg  Mg11  1  0.47588026  0.76791543  0.74773752  1
  Mg  Mg12  1  0.99044004  0.23306075  0.23204770  1
  Mg  Mg13  1  0.03066583  0.48341628  0.49667110  1
  Mg  Mg14  1  0.96994947  0.73594318  0.74576765  1
  Mg  Mg15  1  0.26547437  0.25871158  0.00770340  1
  Mg  Mg16  1  0.29215333  0.50433846  0.26166941  1
  Mg  Mg17  1  0.21537784  0.75456380  0.49342414  1
  Mg  Mg18  1  0.53535299  0.49958071  0.00354200  1
  Mg  Mg19  1  0.72488178  0.76382179  0.99659157  1
  Ti  Ti20  1  0.74115690  0.01341389  0.74508318  1
  Ti  Ti21  1  0.51234950  0.01393315  0.47042564  1
  Ti  Ti22  1  0.96445832  0.96569951  0.47350883  1
  Ti  Ti23  1  0.51548518  0.02472708  0.03105502  1
  Ti  Ti24  1  0.79212900  0.51111270  0.23878978  1
  Ti  Ti25  1  0.73462227  0.77516424  0.45975363  1
  Ti  Ti26  1  0.47682881  0.76203013  0.25238827  1
  Ti  Ti27  1  0.20018985  0.74108538  0.03024552  1
  V  V28  1  0.74482545  0.00772619  0.24070312  1
  V  V29  1  0.50668225  0.25542768  0.27531138  1
  V  V30  1  0.03300211  0.51439269  0.03096323  1
  V  V31  1  0.96531383  0.72302405  0.24026671  1
