# generated using pymatgen
data_Mg4Ti2AlV
_symmetry_space_group_name_H-M   'P 1'
_cell_length_a   11.24771856
_cell_length_b   11.38990213
_cell_length_c   6.11202190
_cell_angle_alpha   73.22121978
_cell_angle_beta   104.07804324
_cell_angle_gamma   63.00248449
_symmetry_Int_Tables_number   1
_chemical_formula_structural   Mg4Ti2AlV
_chemical_formula_sum   'Mg16 Ti8 Al4 V4'
_cell_volume   600.25743569
_cell_formula_units_Z   4
loop_
 _symmetry_equiv_pos_site_id
 _symmetry_equiv_pos_as_xyz
  1  'x, y, z'
loop_
 _atom_site_type_symbol
 _atom_site_label
 _atom_site_symmetry_multiplicity
 _atom_site_fract_x
 _atom_site_fract_y
 _atom_site_fract_z
 _atom_site_occupancy
  Al  Al0  1  0.49684379  0.51584603  0.97908763  1
  Al  Al1  1  0.25070804  0.74845296  0.48649014  1
  Al  Al2  1  0.54776310  0.71464365  0.66947847  1
  Al  Al3  1  0.79412509  0.95596951  0.14979169  1
  Mg  Mg4  1  0.98718382  0.00772925  0.47394606  1
  Mg  Mg5  1  0.00077203  0.00398824  0.99365354  1
  Mg  Mg6  1  0.25926872  0.24117142  0.01629531  1
  Mg  Mg7  1  0.99725808  0.50310781  0.99813165  1
  Mg  Mg8  1  0.73733656  0.26674619  0.47274410  1
  Mg  Mg9  1  0.24534002  0.74878639  0.00220305  1
  Mg  Mg10  1  0.73786593  0.76620806  0.49224803  1
  Mg  Mg11  1  0.04278648  0.21082502  0.16617442  1
  Mg  Mg12  1  0.55726243  0.18567694  0.18346040  1
  Mg  Mg13  1  0.54279101  0.19889606  0.67215425  1
  Mg  Mg14  1  0.29641097  0.45148321  0.19034805  1
  Mg  Mg15  1  0.30370883  0.45459907  0.67234954  1
  Mg  Mg16  1  0.04649886  0.70258546  0.66894710  1
  Mg  Mg17  1  0.78459603  0.46417984  0.15127420  1
  Mg  Mg18  1  0.29123206  0.94628149  0.67779884  1
  Mg  Mg19  1  0.79555825  0.94639868  0.69191111  1
  Ti  Ti20  1  0.49020928  0.99336961  0.97877379  1
  Ti  Ti21  1  0.00303152  0.49022835  0.48902383  1
  Ti  Ti22  1  0.73304258  0.27364354  0.94453176  1
  Ti  Ti23  1  0.50512481  0.53047397  0.48242980  1
  Ti  Ti24  1  0.74205792  0.75578508  0.01755996  1
  Ti  Ti25  1  0.04794255  0.21729690  0.66811252  1
  Ti  Ti26  1  0.78513895  0.46977093  0.63578201  1
  Ti  Ti27  1  0.31854411  0.93739065  0.19267041  1
  V  V28  1  0.48584014  0.99445222  0.53086354  1
  V  V29  1  0.25577873  0.22738433  0.53512993  1
  V  V30  1  0.03258257  0.69542342  0.19674834  1
  V  V31  1  0.55206475  0.71453773  0.18655051  1
