# generated using pymatgen
data_Mg3Ti3AlV
_symmetry_space_group_name_H-M   'P 1'
_cell_length_a   10.81195003
_cell_length_b   11.02213348
_cell_length_c   6.68423346
_cell_angle_alpha   72.16830142
_cell_angle_beta   108.00612715
_cell_angle_gamma   63.87399442
_symmetry_Int_Tables_number   1
_chemical_formula_structural   Mg3Ti3AlV
_chemical_formula_sum   'Mg12 Ti12 Al4 V4'
_cell_volume   581.76690595
_cell_formula_units_Z   4
loop_
 _symmetry_equiv_pos_site_id
 _symmetry_equiv_pos_as_xyz
  1  'x, y, z'
loop_
 _atom_site_type_symbol
 _atom_site_label
 _atom_site_symmetry_multiplicity
 _atom_site_fract_x
 _atom_site_fract_y
 _atom_site_fract_z
 _atom_site_occupancy
  Al  Al0  1  0.92933081  0.06490942  0.40819868  1
  Al  Al1  1  0.23655568  0.26786344  0.50042823  1
  Al  Al2  1  0.94105980  0.53504319  0.42846638  1
  Al  Al3  1  0.34176797  0.42126591  0.23673607  1
  Mg  Mg4  1  0.94657894  0.03590495  0.98129688  1
  Mg  Mg5  1  0.96634518  0.52333065  0.99749485  1
  Mg  Mg6  1  0.07440340  0.15869333  0.71234584  1
  Mg  Mg7  1  0.57738608  0.19411262  0.18483216  1
  Mg  Mg8  1  0.34672667  0.43429178  0.68083064  1
  Mg  Mg9  1  0.06576094  0.68619076  0.20036040  1
  Mg  Mg10  1  0.57482248  0.66803354  0.71745931  1
  Mg  Mg11  1  0.82027948  0.92317645  0.67911889  1
  Mg  Mg12  1  0.21010482  0.30045866  0.93431309  1
  Mg  Mg13  1  0.22334012  0.79441898  0.47602393  1
  Mg  Mg14  1  0.09757067  0.15929508  0.21490718  1
  Mg  Mg15  1  0.07698794  0.66273166  0.69789906  1
  Ti  Ti16  1  0.46996041  0.03074149  0.45280672  1
  Ti  Ti17  1  0.48620841  0.02646424  0.00038607  1
  Ti  Ti18  1  0.70014989  0.29720007  0.48409756  1
  Ti  Ti19  1  0.47262912  0.53872975  0.00373494  1
  Ti  Ti20  1  0.22076696  0.79306453  0.95337640  1
  Ti  Ti21  1  0.70925252  0.77094953  0.45562569  1
  Ti  Ti22  1  0.69679489  0.80088861  0.95890573  1
  Ti  Ti23  1  0.58901391  0.15147988  0.73730428  1
  Ti  Ti24  1  0.81314827  0.40321948  0.19994923  1
  Ti  Ti25  1  0.80940226  0.43288099  0.68723898  1
  Ti  Ti26  1  0.36297002  0.89649343  0.19762402  1
  Ti  Ti27  1  0.35704159  0.91745638  0.75258049  1
  V  V28  1  0.69147109  0.31572117  0.90410281  1
  V  V29  1  0.47375500  0.55242132  0.41736152  1
  V  V30  1  0.59210935  0.65242569  0.21184832  1
  V  V31  1  0.79297330  0.92347501  0.19900967  1
