# generated using pymatgen
data_Mg2Ti3AlV2
_symmetry_space_group_name_H-M   'P 1'
_cell_length_a   9.33742201
_cell_length_b   9.23589311
_cell_length_c   6.32514082
_cell_angle_alpha   90.48925599
_cell_angle_beta   90.70172331
_cell_angle_gamma   91.41766025
_symmetry_Int_Tables_number   1
_chemical_formula_structural   Mg2Ti3AlV2
_chemical_formula_sum   'Mg8 Ti12 Al4 V8'
_cell_volume   545.24735653
_cell_formula_units_Z   4
loop_
 _symmetry_equiv_pos_site_id
 _symmetry_equiv_pos_as_xyz
  1  'x, y, z'
loop_
 _atom_site_type_symbol
 _atom_site_label
 _atom_site_symmetry_multiplicity
 _atom_site_fract_x
 _atom_site_fract_y
 _atom_site_fract_z
 _atom_site_occupancy
  Al  Al0  1  0.26940538  0.00833314  0.75394797  1
  Al  Al1  1  0.76689345  0.51708204  0.24434287  1
  Al  Al2  1  0.23581830  0.25139749  0.98280516  1
  Al  Al3  1  0.50804223  0.75142754  0.22615528  1
  Mg  Mg4  1  0.52161019  0.99139149  0.50089904  1
  Mg  Mg5  1  0.76686632  0.98103073  0.24926582  1
  Mg  Mg6  1  0.01298400  0.99347546  0.50712879  1
  Mg  Mg7  1  0.26047571  0.50628749  0.75249746  1
  Mg  Mg8  1  0.50006989  0.74522692  0.77678041  1
  Mg  Mg9  1  0.99393763  0.49010797  0.51119253  1
  Mg  Mg10  1  0.24945845  0.50347831  0.23913291  1
  Mg  Mg11  1  0.24825696  0.75800023  0.49565249  1
  Ti  Ti12  1  0.76909156  0.00680596  0.77753440  1
  Ti  Ti13  1  0.47047519  0.25206675  0.71164191  1
  Ti  Ti14  1  0.73370022  0.25868577  0.49764590  1
  Ti  Ti15  1  0.26652781  0.01752803  0.24211523  1
  Ti  Ti16  1  0.51295728  0.03900369  0.01196663  1
  Ti  Ti17  1  0.52489847  0.49342212  0.48450737  1
  Ti  Ti18  1  0.73840814  0.26055653  0.99884082  1
  Ti  Ti19  1  0.02561275  0.98984971  0.99319785  1
  Ti  Ti20  1  0.99442647  0.24625836  0.22384472  1
  Ti  Ti21  1  0.51725337  0.46917464  0.01797371  1
  Ti  Ti22  1  0.98767683  0.49581178  0.97059124  1
  Ti  Ti23  1  0.99226038  0.73862088  0.22395931  1
  V  V24  1  0.73524600  0.50877772  0.75415426  1
  V  V25  1  0.97789718  0.23772713  0.77446297  1
  V  V26  1  0.21828134  0.24205368  0.49976579  1
  V  V27  1  0.44831564  0.25274800  0.28234962  1
  V  V28  1  0.76436544  0.73605808  0.54748660  1
  V  V29  1  0.99568089  0.74489243  0.78169888  1
  V  V30  1  0.76747370  0.73834428  0.96382614  1
  V  V31  1  0.22563285  0.77437564  0.00263594  1
