# generated using pymatgen
data_Mg2Ti3AlV2
_symmetry_space_group_name_H-M   'P 1'
_cell_length_a   10.46277506
_cell_length_b   10.75197496
_cell_length_c   6.66510100
_cell_angle_alpha   71.57180524
_cell_angle_beta   108.62693297
_cell_angle_gamma   64.59454334
_symmetry_Int_Tables_number   1
_chemical_formula_structural   Mg2Ti3AlV2
_chemical_formula_sum   'Mg8 Ti12 Al4 V8'
_cell_volume   544.49516105
_cell_formula_units_Z   4
loop_
 _symmetry_equiv_pos_site_id
 _symmetry_equiv_pos_as_xyz
  1  'x, y, z'
loop_
 _atom_site_type_symbol
 _atom_site_label
 _atom_site_symmetry_multiplicity
 _atom_site_fract_x
 _atom_site_fract_y
 _atom_site_fract_z
 _atom_site_occupancy
  Al  Al0  1  0.95718932  0.05060369  0.41468388  1
  Al  Al1  1  0.21055519  0.27559644  0.47714145  1
  Al  Al2  1  0.95135579  0.54743480  0.43669125  1
  Al  Al3  1  0.32839745  0.42283621  0.19977195  1
  Mg  Mg4  1  0.96118406  0.03046036  0.99888884  1
  Mg  Mg5  1  0.96916994  0.54175274  0.98351787  1
  Mg  Mg6  1  0.08496570  0.14659588  0.73421335  1
  Mg  Mg7  1  0.58621688  0.18412181  0.19063911  1
  Mg  Mg8  1  0.32634435  0.42747258  0.69630259  1
  Mg  Mg9  1  0.08097187  0.68776910  0.20983292  1
  Mg  Mg10  1  0.59719993  0.65586507  0.73305939  1
  Mg  Mg11  1  0.82776062  0.92234738  0.69257594  1
  Ti  Ti12  1  0.43631546  0.06201482  0.41083944  1
  Ti  Ti13  1  0.45023829  0.04162709  0.98455910  1
  Ti  Ti14  1  0.69564986  0.30904600  0.48046966  1
  Ti  Ti15  1  0.47729505  0.53691098  0.97457336  1
  Ti  Ti16  1  0.22236825  0.77601257  0.93436084  1
  Ti  Ti17  1  0.70780384  0.77915797  0.44566254  1
  Ti  Ti18  1  0.68356463  0.81043992  0.96472849  1
  Ti  Ti19  1  0.58262817  0.15395668  0.73783300  1
  Ti  Ti20  1  0.84284961  0.38835176  0.22005865  1
  Ti  Ti21  1  0.84345760  0.41651292  0.71908255  1
  Ti  Ti22  1  0.34890872  0.88542915  0.24183867  1
  Ti  Ti23  1  0.32978506  0.92650572  0.68134405  1
  V  V24  1  0.18830406  0.30412003  0.93455295  1
  V  V25  1  0.69560197  0.31415847  0.90349008  1
  V  V26  1  0.46096274  0.55423095  0.44172219  1
  V  V27  1  0.22593390  0.77816185  0.50895922  1
  V  V28  1  0.11130067  0.16635638  0.19478088  1
  V  V29  1  0.07101956  0.68395981  0.67103168  1
  V  V30  1  0.59580693  0.64519920  0.22816989  1
  V  V31  1  0.81556254  0.90832367  0.22128824  1
