# generated using pymatgen
data_Mg3Ti3AlV
_symmetry_space_group_name_H-M   'P 1'
_cell_length_a   9.16433961
_cell_length_b   9.20577842
_cell_length_c   6.88853619
_cell_angle_alpha   89.49943575
_cell_angle_beta   91.01284185
_cell_angle_gamma   88.25599662
_symmetry_Int_Tables_number   1
_chemical_formula_structural   Mg3Ti3AlV
_chemical_formula_sum   'Mg12 Ti12 Al4 V4'
_cell_volume   580.76556038
_cell_formula_units_Z   4
loop_
 _symmetry_equiv_pos_site_id
 _symmetry_equiv_pos_as_xyz
  1  'x, y, z'
loop_
 _atom_site_type_symbol
 _atom_site_label
 _atom_site_symmetry_multiplicity
 _atom_site_fract_x
 _atom_site_fract_y
 _atom_site_fract_z
 _atom_site_occupancy
  Al  Al0  1  0.75291191  0.29292372  0.51631347  1
  Al  Al1  1  0.23889214  0.97553782  0.22008553  1
  Al  Al2  1  0.52058514  0.01279909  0.99899960  1
  Al  Al3  1  0.23329241  0.71975349  0.99795722  1
  Mg  Mg4  1  0.75019458  0.01182559  0.71864932  1
  Mg  Mg5  1  0.48701509  0.98604108  0.47375898  1
  Mg  Mg6  1  0.76879340  0.00320253  0.26129511  1
  Mg  Mg7  1  0.99857573  0.26119234  0.75709024  1
  Mg  Mg8  1  0.23851307  0.48437041  0.72973937  1
  Mg  Mg9  1  0.50000967  0.26302282  0.27206736  1
  Mg  Mg10  1  0.74853405  0.25513735  0.98935801  1
  Mg  Mg11  1  0.74576794  0.51940881  0.22061153  1
  Mg  Mg12  1  0.25435367  0.23912024  0.00543786  1
  Mg  Mg13  1  0.49034871  0.49792821  0.97388348  1
  Mg  Mg14  1  0.49822266  0.74633182  0.21285703  1
  Mg  Mg15  1  0.99204163  0.75290397  0.25767590  1
  Ti  Ti16  1  0.26651197  0.96844000  0.77895408  1
  Ti  Ti17  1  0.48968723  0.24433589  0.71162714  1
  Ti  Ti18  1  0.03207529  0.00151718  0.51987225  1
  Ti  Ti19  1  0.24023961  0.20415060  0.50476822  1
  Ti  Ti20  1  0.51698171  0.51953721  0.53753685  1
  Ti  Ti21  1  0.73027598  0.73700128  0.53742196  1
  Ti  Ti22  1  0.00844940  0.99397965  0.97442316  1
  Ti  Ti23  1  0.01225129  0.25840963  0.26915134  1
  Ti  Ti24  1  0.96975658  0.50519194  0.50629053  1
  Ti  Ti25  1  0.99245873  0.74479186  0.74494590  1
  Ti  Ti26  1  0.23114970  0.48624647  0.29037606  1
  Ti  Ti27  1  0.27635221  0.74949604  0.51461176  1
  V  V28  1  0.77186902  0.52986909  0.77907145  1
  V  V29  1  0.49890072  0.77005334  0.76933623  1
  V  V30  1  0.74350614  0.75817220  0.94830901  1
  V  V31  1  0.00148264  0.50730828  0.00752405  1
