# generated using pymatgen
data_Ti11SiN12
_symmetry_space_group_name_H-M   'P 1'
_cell_length_a   5.19525542
_cell_length_b   5.98693089
_cell_length_c   7.31670420
_cell_angle_alpha   90.00000000
_cell_angle_beta   90.05944884
_cell_angle_gamma   90.00000000
_symmetry_Int_Tables_number   1
_chemical_formula_structural   Ti11SiN12
_chemical_formula_sum   'Ti11 Si1 N12'
_cell_volume   227.57597543
_cell_formula_units_Z   1
loop_
 _symmetry_equiv_pos_site_id
 _symmetry_equiv_pos_as_xyz
  1  'x, y, z'
loop_
 _atom_site_type_symbol
 _atom_site_label
 _atom_site_symmetry_multiplicity
 _atom_site_fract_x
 _atom_site_fract_y
 _atom_site_fract_z
 _atom_site_occupancy
  Ti  Ti0  1  0.49579729  0.24551045  0.99864226  1
  Ti  Ti1  1  0.33064749  -0.00000000  0.67100110  1
  Ti  Ti2  1  0.16666666  0.75816783  0.33333331  1
  Ti  Ti3  1  0.49579729  0.75448954  0.99864226  1
  Ti  Ti4  1  0.33538945  0.49999997  0.67340197  1
  Ti  Ti5  1  0.00268582  -0.00000000  0.99566559  1
  Ti  Ti6  1  0.83753602  0.75448948  0.66802443  1
  Ti  Ti7  1  0.99794386  0.49999997  0.99326466  1
  Ti  Ti8  1  0.16666666  0.24183210  0.33333331  1
  Ti  Ti9  1  0.83753602  0.24551045  0.66802443  1
  Ti  Ti10  1  0.66666663  -0.00000000  0.33333331  1
  Si  Si11  1  0.66666663  0.49999997  0.33333331  1
  N  N12  1  0.16666666  0.24973653  0.83333331  1
  N  N13  1  0.51114330  0.27000443  0.48825768  1
  N  N14  1  0.33132315  -0.00000000  0.16632018  1
  N  N15  1  0.16666664  0.75026346  0.83333331  1
  N  N16  1  0.51114330  0.72999550  0.48825768  1
  N  N17  1  0.36059075  0.49999997  0.18009108  1
  N  N18  1  0.82218998  0.27000443  0.17840895  1
  N  N19  1  0.66666669  -0.00000000  0.83333331  1
  N  N20  1  0.00201016  -0.00000000  0.50034648  1
  N  N21  1  0.82218998  0.72999550  0.17840895  1
  N  N22  1  0.66666669  0.49999997  0.83333331  1
  N  N23  1  0.97274256  0.49999997  0.48657558  1
