# generated using pymatgen
data_TiBW6(C7N)2
_symmetry_space_group_name_H-M   'P 1'
_cell_length_a   5.87689643
_cell_length_b   5.95667634
_cell_length_c   16.10534115
_cell_angle_alpha   90.04031325
_cell_angle_beta   91.04614569
_cell_angle_gamma   119.28981679
_symmetry_Int_Tables_number   1
_chemical_formula_structural   TiBW6(C7N)2
_chemical_formula_sum   'Ti2 B2 W12 C28 N4'
_cell_volume   491.60619489
_cell_formula_units_Z   2
loop_
 _symmetry_equiv_pos_site_id
 _symmetry_equiv_pos_as_xyz
  1  'x, y, z'
loop_
 _atom_site_type_symbol
 _atom_site_label
 _atom_site_symmetry_multiplicity
 _atom_site_fract_x
 _atom_site_fract_y
 _atom_site_fract_z
 _atom_site_occupancy
  B  B0  1  0.30817999  0.49346520  0.35303554  1
  B  B1  1  0.46322024  0.14312823  0.62650635  1
  W  W2  1  0.34233312  0.16804945  0.12782094  1
  W  W3  1  0.15099181  0.31420660  0.87681662  1
  W  W4  1  0.34393656  0.67054657  0.12404883  1
  W  W5  1  0.14201189  0.80359999  0.87709716  1
  W  W6  1  0.31895413  0.68273567  0.62378203  1
  W  W7  1  0.68109014  0.35323103  0.37278135  1
  W  W8  1  0.83911069  0.17182017  0.12783746  1
  W  W9  1  0.84904067  0.15285206  0.62506765  1
  W  W10  1  0.70147333  0.86654732  0.37711182  1
  W  W11  1  0.84323716  0.65906847  0.12802810  1
  W  W12  1  0.64453582  0.81831925  0.87165532  1
  W  W13  1  0.75777787  0.60922224  0.62228174  1
  N  N14  1  0.03032210  0.98932743  0.46054543  1
  N  N15  1  0.01740798  0.00674413  0.20920200  1
  N  N16  1  0.95200004  0.51423391  0.46289731  1
  N  N17  1  0.00656056  0.49686860  0.04625973  1
  C  C18  1  0.00083819  0.99880400  0.04327363  1
  C  C19  1  0.94343832  0.95449640  0.28380436  1
  C  C20  1  0.97501626  0.97501137  0.95986106  1
  C  C21  1  0.91312751  0.93886466  0.71201293  1
  C  C22  1  0.97483691  0.02621621  0.53014077  1
  C  C23  1  0.98176725  0.96181064  0.79227690  1
  C  C24  1  0.04200036  0.51073506  0.21762298  1
  C  C25  1  0.04903029  0.47425449  0.30380700  1
  C  C26  1  0.98602684  0.48712702  0.96140298  1
  C  C27  1  0.98534983  0.48300230  0.70609731  1
  C  C28  1  0.01628941  0.51775460  0.53861646  1
  C  C29  1  0.99577872  0.49558109  0.79073133  1
  C  C30  1  0.52212063  0.04741347  0.45828781  1
  C  C31  1  0.51409038  0.01132708  0.21011482  1
  C  C32  1  0.52017837  0.02693368  0.04170912  1
  C  C33  1  0.52581811  0.02108343  0.29625062  1
  C  C34  1  0.46889311  0.93812473  0.96265751  1
  C  C35  1  0.48502013  0.01388129  0.70586941  1
  C  C36  1  0.49996029  0.02262817  0.54444780  1
  C  C37  1  0.46919626  0.95692665  0.78752029  1
  C  C38  1  0.45341016  0.51034329  0.44234509  1
  C  C39  1  0.52038698  0.50990905  0.20660886  1
  C  C40  1  0.52402323  0.49653109  0.04300992  1
  C  C41  1  0.52351042  0.52645972  0.29207836  1
  C  C42  1  0.44137599  0.48552124  0.96390442  1
  C  C43  1  0.50874875  0.51146537  0.71275222  1
  C  C44  1  0.48846530  0.56523373  0.52533734  1
  C  C45  1  0.43534400  0.46458459  0.79075674  1
  Ti  Ti46  1  0.18666750  0.83714373  0.37984689  1
  Ti  Ti47  1  0.65710644  0.31686553  0.88407966  1
