# generated using pymatgen
data_TiNiW6(C7N)2
_symmetry_space_group_name_H-M   'P 1'
_cell_length_a   5.87317222
_cell_length_b   5.87289424
_cell_length_c   16.17216960
_cell_angle_alpha   90.33938126
_cell_angle_beta   89.79494844
_cell_angle_gamma   119.50515256
_symmetry_Int_Tables_number   1
_chemical_formula_structural   TiNiW6(C7N)2
_chemical_formula_sum   'Ti2 Ni2 W12 C28 N4'
_cell_volume   485.46747149
_cell_formula_units_Z   2
loop_
 _symmetry_equiv_pos_site_id
 _symmetry_equiv_pos_as_xyz
  1  'x, y, z'
loop_
 _atom_site_type_symbol
 _atom_site_label
 _atom_site_symmetry_multiplicity
 _atom_site_fract_x
 _atom_site_fract_y
 _atom_site_fract_z
 _atom_site_occupancy
  Ni  Ni0  1  0.17409797  0.34494042  0.36803535  1
  Ni  Ni1  1  0.67675280  0.33546380  0.88444864  1
  W  W2  1  0.32686143  0.17381581  0.12677706  1
  W  W3  1  0.17541753  0.33319405  0.87608242  1
  W  W4  1  0.33431689  0.16050385  0.62226900  1
  W  W5  1  0.16427626  0.83232240  0.37475464  1
  W  W6  1  0.32888907  0.67291088  0.12252009  1
  W  W7  1  0.17425403  0.82683972  0.87821616  1
  W  W8  1  0.33128448  0.66072992  0.62916301  1
  W  W9  1  0.66794838  0.33851831  0.37408584  1
  W  W10  1  0.83557393  0.16288626  0.62598490  1
  W  W11  1  0.82761367  0.67514025  0.12670452  1
  W  W12  1  0.66969137  0.82709076  0.87561303  1
  W  W13  1  0.83686778  0.66265560  0.62294024  1
  N  N14  1  0.97712257  0.97298138  0.45897685  1
  N  N15  1  0.00709355  0.99690800  0.95681961  1
  N  N16  1  0.99278048  0.49802412  0.20685729  1
  N  N17  1  0.50591518  0.48870233  0.70748427  1
  C  C18  1  0.98391164  0.00342266  0.21065216  1
  C  C19  1  0.01204988  0.98932891  0.04026723  1
  C  C20  1  0.02248431  0.01789241  0.29167542  1
  C  C21  1  0.01415950  0.99328803  0.70849899  1
  C  C22  1  0.00234616  0.00248279  0.53908839  1
  C  C23  1  0.01375309  0.99237419  0.79342042  1
  C  C24  1  0.99561661  0.50529937  0.45669278  1
  C  C25  1  0.99054123  0.52482735  0.04165335  1
  C  C26  1  0.99938705  0.52358831  0.28777212  1
  C  C27  1  0.00898627  0.48618407  0.96065719  1
  C  C28  1  0.98860359  0.49486828  0.70886612  1
  C  C29  1  0.01238723  0.49600065  0.54068658  1
  C  C30  1  0.03834345  0.51984914  0.79094180  1
  C  C31  1  0.47829676  0.00421686  0.45985977  1
  C  C32  1  0.46227721  0.96146710  0.21149511  1
  C  C33  1  0.46506595  0.00835283  0.03949025  1
  C  C34  1  0.50295098  0.01783233  0.29109555  1
  C  C35  1  0.52305360  0.99701898  0.96018255  1
  C  C36  1  0.50555155  0.00965403  0.70828906  1
  C  C37  1  0.51943461  0.98541034  0.54047495  1
  C  C38  1  0.47466540  0.95487943  0.78934133  1
  C  C39  1  0.51110295  0.48388817  0.46005596  1
  C  C40  1  0.49208645  0.52532775  0.20959846  1
  C  C41  1  0.50165132  0.49980844  0.04336179  1
  C  C42  1  0.49501068  0.48027423  0.29031966  1
  C  C43  1  0.49459065  0.51250496  0.95908143  1
  C  C44  1  0.49310554  0.51312183  0.54082690  1
  C  C45  1  0.48136610  0.51668689  0.78705079  1
  Ti  Ti46  1  0.83625115  0.18131522  0.12246345  1
  Ti  Ti47  1  0.67421171  0.83520658  0.37840748  1
