# generated using pymatgen
data_TiFeW6(C7N)2
_symmetry_space_group_name_H-M   'P 1'
_cell_length_a   5.89591367
_cell_length_b   5.86545538
_cell_length_c   16.09735302
_cell_angle_alpha   89.78043207
_cell_angle_beta   90.15035329
_cell_angle_gamma   120.64931161
_symmetry_Int_Tables_number   1
_chemical_formula_structural   TiFeW6(C7N)2
_chemical_formula_sum   'Ti2 Fe2 W12 C28 N4'
_cell_volume   478.91202274
_cell_formula_units_Z   2
loop_
 _symmetry_equiv_pos_site_id
 _symmetry_equiv_pos_as_xyz
  1  'x, y, z'
loop_
 _atom_site_type_symbol
 _atom_site_label
 _atom_site_symmetry_multiplicity
 _atom_site_fract_x
 _atom_site_fract_y
 _atom_site_fract_z
 _atom_site_occupancy
  W  W0  1  0.17054082  0.33394905  0.37746285  1
  W  W1  1  0.33191653  0.16170206  0.12100406  1
  W  W2  1  0.33472543  0.16422338  0.62927128  1
  W  W3  1  0.16865105  0.83395443  0.37720923  1
  W  W4  1  0.16774241  0.84576883  0.87110906  1
  W  W5  1  0.33880450  0.66228160  0.62491249  1
  W  W6  1  0.66828783  0.33247672  0.37245111  1
  W  W7  1  0.83243147  0.16576791  0.12274672  1
  W  W8  1  0.66264570  0.34012605  0.87638319  1
  W  W9  1  0.83661833  0.16071364  0.62613498  1
  W  W10  1  0.66953531  0.83551052  0.37572113  1
  W  W11  1  0.83111802  0.66916269  0.12174066  1
  C  C12  1  0.99537283  0.00330875  0.46118000  1
  C  C13  1  0.00187767  0.98980549  0.20875306  1
  C  C14  1  0.00192726  0.00414263  0.03843608  1
  C  C15  1  0.97763994  0.98332181  0.95462148  1
  C  C16  1  0.99378337  0.96970315  0.70999255  1
  C  C17  1  0.01220021  0.98472057  0.54474087  1
  C  C18  1  0.97091278  0.00316897  0.79171138  1
  C  C19  1  0.99761119  0.50474659  0.46219893  1
  C  C20  1  0.95938554  0.46311935  0.21150297  1
  C  C21  1  0.96986997  0.45533267  0.03417290  1
  C  C22  1  0.02726384  0.53097250  0.29026039  1
  C  C23  1  0.01785753  0.55685196  0.95943736  1
  C  C24  1  0.00516988  0.48970778  0.70854103  1
  C  C25  1  0.97203849  0.51279611  0.78979722  1
  C  C26  1  0.51208845  0.02510014  0.45901278  1
  C  C27  1  0.50185620  0.00840429  0.20607051  1
  C  C28  1  0.49438785  0.99772401  0.29024134  1
  C  C29  1  0.50057596  0.99623558  0.95749754  1
  C  C30  1  0.50214818  0.98459749  0.71009010  1
  C  C31  1  0.51238810  0.99725546  0.54309373  1
  C  C32  1  0.52279051  0.02007439  0.79451644  1
  C  C33  1  0.50329254  0.50847617  0.46115801  1
  C  C34  1  0.51824106  0.47740004  0.20934630  1
  C  C35  1  0.49603718  0.47844808  0.03478079  1
  C  C36  1  0.49344314  0.52107964  0.28942108  1
  C  C37  1  0.52206163  0.54968706  0.95554473  1
  C  C38  1  0.49319878  0.50162901  0.71223537  1
  C  C39  1  0.51215311  0.48710981  0.54521457  1
  N  N40  1  0.00053497  0.00557381  0.29232640  1
  N  N41  1  0.99871823  0.47884021  0.54340179  1
  N  N42  1  0.49167597  0.98465155  0.04050920  1
  N  N43  1  0.49694533  0.49930562  0.79357186  1
  Ti  Ti44  1  0.17062366  0.33677089  0.87144511  1
  Ti  Ti45  1  0.34124462  0.67068837  0.12438708  1
  Fe  Fe46  1  0.66932867  0.84327362  0.87721560  1
  Fe  Fe47  1  0.83033798  0.67033955  0.62742669  1
