# generated using pymatgen
data_TiMnW6(C7N)2
_symmetry_space_group_name_H-M   'P 1'
_cell_length_a   5.86789159
_cell_length_b   5.84874625
_cell_length_c   16.17522541
_cell_angle_alpha   90.08607966
_cell_angle_beta   90.21630038
_cell_angle_gamma   120.29041068
_symmetry_Int_Tables_number   1
_chemical_formula_structural   TiMnW6(C7N)2
_chemical_formula_sum   'Ti2 Mn2 W12 C28 N4'
_cell_volume   479.33705215
_cell_formula_units_Z   2
loop_
 _symmetry_equiv_pos_site_id
 _symmetry_equiv_pos_as_xyz
  1  'x, y, z'
loop_
 _atom_site_type_symbol
 _atom_site_label
 _atom_site_symmetry_multiplicity
 _atom_site_fract_x
 _atom_site_fract_y
 _atom_site_fract_z
 _atom_site_occupancy
  W  W0  1  0.16859627  0.33672393  0.37547087  1
  W  W1  1  0.33118957  0.16305675  0.12533783  1
  W  W2  1  0.16016636  0.32882333  0.87087583  1
  W  W3  1  0.16625870  0.83495659  0.37845121  1
  W  W4  1  0.32395421  0.66107758  0.12680618  1
  W  W5  1  0.16162901  0.82771556  0.87004288  1
  W  W6  1  0.34264908  0.67632168  0.62392050  1
  W  W7  1  0.83204095  0.16413942  0.12567076  1
  W  W8  1  0.66676546  0.83683560  0.38079484  1
  W  W9  1  0.83212218  0.66424620  0.12421204  1
  W  W10  1  0.66447053  0.83378653  0.87093850  1
  W  W11  1  0.83418234  0.67036667  0.62711050  1
  C  C12  1  0.01678620  0.01413207  0.46111931  1
  C  C13  1  0.00279177  0.99565289  0.20991994  1
  C  C14  1  0.98094950  0.98695982  0.29399205  1
  C  C15  1  0.99870187  0.99818331  0.95812530  1
  C  C16  1  0.02290721  0.02571650  0.70386325  1
  C  C17  1  0.98814306  0.99636739  0.54498290  1
  C  C18  1  0.98848050  0.98972919  0.78685378  1
  C  C19  1  0.02704218  0.52046090  0.46270911  1
  C  C20  1  0.01572669  0.50561118  0.21314317  1
  C  C21  1  0.99170497  0.49042889  0.04106535  1
  C  C22  1  0.04954954  0.52529213  0.96047148  1
  C  C23  1  0.98546203  0.48579485  0.54518258  1
  C  C24  1  0.03982217  0.51659544  0.78227898  1
  C  C25  1  0.50993829  0.01740213  0.21133881  1
  C  C26  1  0.51087666  0.01654567  0.04011696  1
  C  C27  1  0.48902910  0.97114621  0.29327516  1
  C  C28  1  0.48290892  0.96804643  0.95850741  1
  C  C29  1  0.50081048  0.02103451  0.70249678  1
  C  C30  1  0.51110665  0.99402231  0.54117725  1
  C  C31  1  0.49844712  0.98662076  0.78541251  1
  C  C32  1  0.45617998  0.50018236  0.46478832  1
  C  C33  1  0.51616091  0.49378539  0.21068160  1
  C  C34  1  0.51119411  0.49043520  0.03945173  1
  C  C35  1  0.48459336  0.52932993  0.29061074  1
  C  C36  1  0.47640559  0.51204494  0.95906883  1
  C  C37  1  0.48431924  0.46123953  0.70518243  1
  C  C38  1  0.51208987  0.49089572  0.54488003  1
  C  C39  1  0.49542685  0.51208322  0.78659997  1
  N  N40  1  0.99740852  0.99509224  0.04092441  1
  N  N41  1  0.98932276  0.50259769  0.29533119  1
  N  N42  1  0.99161424  0.48713670  0.70298171  1
  N  N43  1  0.50450031  0.01803173  0.46000928  1
  Mn  Mn44  1  0.32629567  0.16339274  0.62682395  1
  Mn  Mn45  1  0.83529348  0.16185049  0.62386067  1
  Ti  Ti46  1  0.67352503  0.33440800  0.37674894  1
  Ti  Ti47  1  0.65046055  0.32370168  0.87639217  1
