# generated using pymatgen
data_TiCrW6(C7N)2
_symmetry_space_group_name_H-M   'P 1'
_cell_length_a   5.89445894
_cell_length_b   5.86102717
_cell_length_c   16.11529182
_cell_angle_alpha   89.66361273
_cell_angle_beta   90.57521442
_cell_angle_gamma   120.28136062
_symmetry_Int_Tables_number   1
_chemical_formula_structural   TiCrW6(C7N)2
_chemical_formula_sum   'Ti2 Cr2 W12 C28 N4'
_cell_volume   480.75755090
_cell_formula_units_Z   2
loop_
 _symmetry_equiv_pos_site_id
 _symmetry_equiv_pos_as_xyz
  1  'x, y, z'
loop_
 _atom_site_type_symbol
 _atom_site_label
 _atom_site_symmetry_multiplicity
 _atom_site_fract_x
 _atom_site_fract_y
 _atom_site_fract_z
 _atom_site_occupancy
  Ti  Ti0  1  0.15909462  0.32823256  0.37920058  1
  Ti  Ti1  1  0.33879539  0.16104709  0.12368121  1
  C  C2  1  0.96297196  0.96422620  0.45803333  1
  C  C3  1  0.97585639  0.99044790  0.21310084  1
  C  C4  1  0.96409563  0.95190147  0.03864091  1
  C  C5  1  0.02210546  0.03028705  0.96013573  1
  C  C6  1  0.00234739  0.96823353  0.70915956  1
  C  C7  1  0.00235979  0.00922658  0.54008061  1
  C  C8  1  0.98789904  0.01364161  0.79099285  1
  C  C9  1  0.97186762  0.51188135  0.45950388  1
  C  C10  1  0.99915833  0.47484591  0.20966179  1
  C  C11  1  0.99777881  0.49869423  0.04083864  1
  C  C12  1  0.98995881  0.52365860  0.29040508  1
  C  C13  1  0.00069012  0.51299605  0.95617095  1
  C  C14  1  0.00052376  0.47340468  0.54013099  1
  C  C15  1  0.00014856  0.50652010  0.79105148  1
  C  C16  1  0.50437126  -0.00009797  0.45676641  1
  C  C17  1  0.52651464  0.00065031  0.20961591  1
  C  C18  1  0.50015731  0.00823361  0.03711504  1
  C  C19  1  0.49409676  0.02368825  0.29167983  1
  C  C20  1  0.49722041  0.99692462  0.71237189  1
  C  C21  1  0.50621723  0.99194593  0.54172058  1
  C  C22  1  0.53976130  0.52753894  0.45865654  1
  C  C23  1  0.49546384  0.53142059  0.21431734  1
  C  C24  1  0.50627111  0.54121683  0.03577317  1
  C  C25  1  0.53621383  0.47259375  0.29004992  1
  C  C26  1  0.51726626  0.48191135  0.95654307  1
  C  C27  1  0.49605794  0.48453835  0.70990029  1
  C  C28  1  0.47726670  0.48417414  0.53901174  1
  C  C29  1  0.52235326  0.51429972  0.79351932  1
  N  N30  1  0.00859663  0.02004964  0.29391887  1
  N  N31  1  0.99144192  0.49296694  0.70766137  1
  N  N32  1  0.50541833  0.01265410  0.95487908  1
  N  N33  1  0.50344531  0.00470137  0.79596759  1
  W  W34  1  0.16617014  0.33547177  0.87388071  1
  W  W35  1  0.33253466  0.16007797  0.62552872  1
  W  W36  1  0.16519027  0.83159528  0.37467759  1
  W  W37  1  0.33797946  0.66545829  0.12329534  1
  W  W38  1  0.16535773  0.83153975  0.87207876  1
  W  W39  1  0.33326211  0.66271024  0.62858154  1
  W  W40  1  0.83189547  0.16776440  0.12248083  1
  W  W41  1  0.83004264  0.15903181  0.62954924  1
  W  W42  1  0.65919396  0.83154955  0.36987177  1
  W  W43  1  0.84597539  0.67690607  0.12954187  1
  W  W44  1  0.66653785  0.83498474  0.87792701  1
  W  W45  1  0.83401658  0.66332491  0.62157066  1
  Cr  Cr46  1  0.65940133  0.33233780  0.37599873  1
  Cr  Cr47  1  0.66865667  0.33859203  0.87476086  1
