# generated using pymatgen
data_TiAlW6(C7N)2
_symmetry_space_group_name_H-M   'P 1'
_cell_length_a   5.92011928
_cell_length_b   5.92076064
_cell_length_c   16.14592069
_cell_angle_alpha   90.02662442
_cell_angle_beta   90.18828369
_cell_angle_gamma   119.60646325
_symmetry_Int_Tables_number   1
_chemical_formula_structural   TiAlW6(C7N)2
_chemical_formula_sum   'Ti2 Al2 W12 C28 N4'
_cell_volume   492.04678412
_cell_formula_units_Z   2
loop_
 _symmetry_equiv_pos_site_id
 _symmetry_equiv_pos_as_xyz
  1  'x, y, z'
loop_
 _atom_site_type_symbol
 _atom_site_label
 _atom_site_symmetry_multiplicity
 _atom_site_fract_x
 _atom_site_fract_y
 _atom_site_fract_z
 _atom_site_occupancy
  W  W0  1  0.16280618  0.33357624  0.37881046  1
  W  W1  1  0.16235478  0.32599272  0.87198837  1
  W  W2  1  0.33722742  0.17154444  0.62465094  1
  W  W3  1  0.16740085  0.83425366  0.37299388  1
  W  W4  1  0.33080209  0.66064101  0.12103391  1
  W  W5  1  0.16901640  0.82626248  0.87606436  1
  W  W6  1  0.33035264  0.66955494  0.62782334  1
  W  W7  1  0.66990560  0.33337723  0.37433108  1
  W  W8  1  0.83377127  0.16620707  0.12464238  1
  W  W9  1  0.83598083  0.16334588  0.62606698  1
  W  W10  1  0.66980686  0.83950427  0.36893002  1
  W  W11  1  0.66639923  0.82940281  0.87999595  1
  Al  Al12  1  0.32380886  0.14706455  0.11969105  1
  Al  Al13  1  0.83836363  0.66132610  0.63180691  1
  C  C14  1  0.99485244  0.98427451  0.45590687  1
  C  C15  1  0.02991243  0.00988770  0.28499086  1
  C  C16  1  0.01229710  0.00044344  0.96345340  1
  C  C17  1  0.01299927  0.03270132  0.71169001  1
  C  C18  1  0.01326347  0.05229756  0.53593883  1
  C  C19  1  0.98928163  0.98090192  0.79390276  1
  C  C20  1  0.00103043  0.51131805  0.45907807  1
  C  C21  1  0.01113181  0.48350818  0.20592005  1
  C  C22  1  0.97638383  0.47539595  0.04199993  1
  C  C23  1  0.00298514  0.49066291  0.29110744  1
  C  C24  1  0.03052373  0.51286794  0.96035223  1
  C  C25  1  0.01725964  0.50115926  0.54290960  1
  C  C26  1  0.99546136  0.50366575  0.78969430  1
  C  C27  1  0.50779921  0.99303467  0.45701073  1
  C  C28  1  0.50554673  0.99470656  0.20421227  1
  C  C29  1  0.49703550  0.01333322  0.28829183  1
  C  C30  1  0.47911445  0.98793053  0.96264750  1
  C  C31  1  0.50588605  0.01085367  0.70910530  1
  C  C32  1  0.50131397  0.99108524  0.54247986  1
  C  C33  1  0.48273393  0.96331394  0.79199013  1
  C  C34  1  0.52031162  0.52628155  0.45688265  1
  C  C35  1  0.47390547  0.54887287  0.21469775  1
  C  C36  1  0.53047495  0.51483655  0.04103039  1
  C  C37  1  0.50823529  0.48546338  0.28960848  1
  C  C38  1  0.44899956  0.48167836  0.96389377  1
  C  C39  1  0.46741826  0.46490385  0.71224121  1
  C  C40  1  0.45542779  0.48270599  0.53655372  1
  C  C41  1  0.50520390  0.53977483  0.79073248  1
  N  N42  1  0.00814928  0.01158455  0.20400931  1
  N  N43  1  0.00370018  0.99720092  0.04519409  1
  N  N44  1  0.00124383  0.50596268  0.70787704  1
  N  N45  1  0.50594027  0.99952543  0.04319714  1
  Ti  Ti46  1  0.67336492  0.32280189  0.87329061  1
  Ti  Ti47  1  0.83281591  0.66301145  0.12927975  1
