# generated using pymatgen
data_TiNiW6(C7N)2
_symmetry_space_group_name_H-M   'P 1'
_cell_length_a   5.86183832
_cell_length_b   5.94703958
_cell_length_c   16.19833896
_cell_angle_alpha   89.73613901
_cell_angle_beta   89.39238970
_cell_angle_gamma   120.19986945
_symmetry_Int_Tables_number   1
_chemical_formula_structural   TiNiW6(C7N)2
_chemical_formula_sum   'Ti2 Ni2 W12 C28 N4'
_cell_volume   487.98270267
_cell_formula_units_Z   2
loop_
 _symmetry_equiv_pos_site_id
 _symmetry_equiv_pos_as_xyz
  1  'x, y, z'
loop_
 _atom_site_type_symbol
 _atom_site_label
 _atom_site_symmetry_multiplicity
 _atom_site_fract_x
 _atom_site_fract_y
 _atom_site_fract_z
 _atom_site_occupancy
  W  W0  1  0.15805814  0.32747820  0.37782827  1
  W  W1  1  0.34161707  0.17251405  0.12778293  1
  W  W2  1  0.32685777  0.16005520  0.62264102  1
  W  W3  1  0.15785943  0.82620219  0.37345375  1
  W  W4  1  0.34227276  0.67222670  0.12755184  1
  W  W5  1  0.32520241  0.66218100  0.62543985  1
  W  W6  1  0.66082090  0.32767426  0.37187071  1
  W  W7  1  0.83979682  0.17108244  0.12429311  1
  W  W8  1  0.67134306  0.33961203  0.87746771  1
  W  W9  1  0.66171970  0.82797777  0.37110528  1
  W  W10  1  0.84062147  0.67106835  0.12583694  1
  W  W11  1  0.67273658  0.83800577  0.87455543  1
  C  C12  1  0.95899931  0.95907184  0.45957244  1
  C  C13  1  0.99265100  0.00687185  0.20766778  1
  C  C14  1  0.03565801  0.01282086  0.03961537  1
  C  C15  1  0.00684769  0.00664563  0.29182937  1
  C  C16  1  0.98243896  0.01178843  0.95978683  1
  C  C17  1  0.05533891  0.02189604  0.71546837  1
  C  C18  1  0.01603987  0.02224367  0.53861013  1
  C  C19  1  0.96366134  0.49011948  0.45999635  1
  C  C20  1  0.03608107  0.53230855  0.04075822  1
  C  C21  1  0.00138772  0.48897148  0.29066633  1
  C  C22  1  0.98783535  0.48496425  0.96062510  1
  C  C23  1  0.01359005  0.48621975  0.54048163  1
  C  C24  1  0.94335946  0.47823319  0.78483730  1
  C  C25  1  0.48754909  0.99141113  0.45606868  1
  C  C26  1  0.51416943  0.00576150  0.20922744  1
  C  C27  1  0.49621995  0.00289071  0.04172973  1
  C  C28  1  0.51064918  0.00112397  0.95739824  1
  C  C29  1  0.47940851  0.99196949  0.70853459  1
  C  C30  1  0.47955745  0.97403339  0.53994436  1
  C  C31  1  0.51476281  0.01013064  0.79063145  1
  C  C32  1  0.51174598  0.50543261  0.45908460  1
  C  C33  1  0.52570839  0.51699516  0.21013334  1
  C  C34  1  0.51475270  0.50281703  0.04335366  1
  C  C35  1  0.46633047  0.48078642  0.29201352  1
  C  C36  1  0.51995214  0.52879468  0.96002381  1
  C  C37  1  0.48647456  0.49269696  0.70905297  1
  C  C38  1  0.48292712  0.49834827  0.54241483  1
  C  C39  1  0.52046314  0.50725535  0.79122220  1
  Ni  Ni40  1  0.18754116  0.35613596  0.89182891  1
  Ni  Ni41  1  0.81427048  0.14767379  0.60833186  1
  N  N42  1  0.97744534  0.97359084  0.78741912  1
  N  N43  1  0.00720714  0.49803086  0.20729723  1
  N  N44  1  0.01914435  0.52520722  0.71250189  1
  N  N45  1  0.49211587  0.99293865  0.29282723  1
  Ti  Ti46  1  0.17300548  0.84061940  0.87461916  1
  Ti  Ti47  1  0.82580435  0.65712301  0.62459905  1
