# generated using pymatgen
data_ZrTiW6(C7N)2
_symmetry_space_group_name_H-M   'P 1'
_cell_length_a   6.01188478
_cell_length_b   6.01698868
_cell_length_c   16.07267015
_cell_angle_alpha   89.53959311
_cell_angle_beta   90.51153257
_cell_angle_gamma   120.12665929
_symmetry_Int_Tables_number   1
_chemical_formula_structural   ZrTiW6(C7N)2
_chemical_formula_sum   'Zr2 Ti2 W12 C28 N4'
_cell_volume   502.84232153
_cell_formula_units_Z   2
loop_
 _symmetry_equiv_pos_site_id
 _symmetry_equiv_pos_as_xyz
  1  'x, y, z'
loop_
 _atom_site_type_symbol
 _atom_site_label
 _atom_site_symmetry_multiplicity
 _atom_site_fract_x
 _atom_site_fract_y
 _atom_site_fract_z
 _atom_site_occupancy
  Ti  Ti0  1  0.17454881  0.33381379  0.37224242  1
  Ti  Ti1  1  0.34521306  0.16434834  0.62293425  1
  Zr  Zr2  1  0.33809597  0.17204382  0.09295695  1
  Zr  Zr3  1  0.83932323  0.16124942  0.63522090  1
  C  C4  1  0.94371741  0.95853319  0.46589680  1
  C  C5  1  0.95986773  0.99964802  0.21363189  1
  C  C6  1  0.91498980  0.95896271  0.03463360  1
  C  C7  1  0.99969901  0.97271391  0.29373278  1
  C  C8  1  0.02155974  0.01164218  0.95724571  1
  C  C9  1  0.98124359  0.92022357  0.71505723  1
  C  C10  1  0.98712302  0.01689443  0.78967486  1
  C  C11  1  0.95116646  0.48109155  0.46417830  1
  C  C12  1  0.00528148  0.49179015  0.20963897  1
  C  C13  1  0.00613446  0.50939822  0.04270437  1
  C  C14  1  0.99438934  0.53674133  0.29049767  1
  C  C15  1  0.00023538  0.50837630  0.95697289  1
  C  C16  1  0.02594110  0.54476467  0.71173763  1
  C  C17  1  0.06165981  0.53375397  0.53773754  1
  C  C18  1  0.50666995  0.00522625  0.45979457  1
  C  C19  1  0.50989463  0.98783434  0.20957719  1
  C  C20  1  0.53423733  0.95727273  0.03482623  1
  C  C21  1  0.48044610  0.99576384  0.29275785  1
  C  C22  1  0.48465007  0.01417891  0.95644213  1
  C  C23  1  0.50024548  0.98541042  0.54392304  1
  C  C24  1  0.50956705  0.00286954  0.79102957  1
  C  C25  1  0.51181758  0.50185734  0.46137636  1
  C  C26  1  0.51554545  0.52506454  0.20981139  1
  C  C27  1  0.54853484  0.58289571  0.03503455  1
  C  C28  1  0.49775649  0.49761220  0.29333143  1
  C  C29  1  0.48815726  0.47786499  0.95694646  1
  C  C30  1  0.51856696  0.51241079  0.70710275  1
  C  C31  1  0.50365715  0.50965493  0.79211623  1
  W  W32  1  0.16520727  0.33692034  0.87326277  1
  W  W33  1  0.16718870  0.83046751  0.37807593  1
  W  W34  1  0.33802284  0.67202610  0.12600773  1
  W  W35  1  0.16727037  0.84101534  0.87267600  1
  W  W36  1  0.33870018  0.66397853  0.62735986  1
  W  W37  1  0.66218623  0.33335846  0.37657928  1
  W  W38  1  0.83485024  0.16667381  0.12598554  1
  W  W39  1  0.66587049  0.33710288  0.87295235  1
  W  W40  1  0.66602703  0.83156129  0.37538424  1
  W  W41  1  0.83054526  0.66612088  0.12788644  1
  W  W42  1  0.65826487  0.83438990  0.88023600  1
  W  W43  1  0.83617753  0.65927596  0.62413803  1
  N  N44  1  0.01846302  0.00264345  0.54164670  1
  N  N45  1  0.00011047  0.50685475  0.79499469  1
  N  N46  1  0.48859425  0.98954435  0.70729553  1
  N  N47  1  0.50258547  0.49616032  0.54475441  1
