# generated using pymatgen
data_TiCoW6(C7N)2
_symmetry_space_group_name_H-M   'P 1'
_cell_length_a   5.88035839
_cell_length_b   5.80263099
_cell_length_c   16.15736588
_cell_angle_alpha   89.68965523
_cell_angle_beta   90.54353428
_cell_angle_gamma   119.38840960
_symmetry_Int_Tables_number   1
_chemical_formula_structural   TiCoW6(C7N)2
_chemical_formula_sum   'Ti2 Co2 W12 C28 N4'
_cell_volume   480.34562967
_cell_formula_units_Z   2
loop_
 _symmetry_equiv_pos_site_id
 _symmetry_equiv_pos_as_xyz
  1  'x, y, z'
loop_
 _atom_site_type_symbol
 _atom_site_label
 _atom_site_symmetry_multiplicity
 _atom_site_fract_x
 _atom_site_fract_y
 _atom_site_fract_z
 _atom_site_occupancy
  W  W0  1  0.16434167  0.34013952  0.37516322  1
  W  W1  1  0.34517075  0.16380589  0.12671175  1
  W  W2  1  0.32204858  0.16170412  0.62786782  1
  W  W3  1  0.16667286  0.83891877  0.37320418  1
  W  W4  1  0.16737879  0.82994724  0.87724309  1
  W  W5  1  0.32423981  0.66685417  0.62621154  1
  W  W6  1  0.66330198  0.33693747  0.36997981  1
  W  W7  1  0.66988609  0.33259656  0.87847569  1
  W  W8  1  0.82917152  0.16458796  0.62400671  1
  W  W9  1  0.66766546  0.84033192  0.37630431  1
  W  W10  1  0.67087118  0.82817169  0.87798110  1
  W  W11  1  0.82488339  0.66463333  0.62590524  1
  N  N12  1  0.01322855  0.01100225  0.45649823  1
  N  N13  1  0.48490436  0.97816808  0.20778620  1
  N  N14  1  0.55614489  0.53039893  0.96724394  1
  N  N15  1  0.48465819  0.49110559  0.71058015  1
  C  C16  1  0.99616108  0.00046003  0.20387528  1
  C  C17  1  0.02770218  0.04161063  0.04017869  1
  C  C18  1  0.00226835  0.00744419  0.28770303  1
  C  C19  1  0.02264797  0.01306532  0.95696054  1
  C  C20  1  0.97466010  0.99087212  0.71011208  1
  C  C21  1  0.97835830  0.99809000  0.53875885  1
  C  C22  1  0.00258943  0.00169698  0.79341725  1
  C  C23  1  0.01329678  0.50986395  0.45754490  1
  C  C24  1  0.95953563  0.49547504  0.20633009  1
  C  C25  1  0.00965701  0.47271517  0.04119005  1
  C  C26  1  0.02015266  0.50694850  0.28658646  1
  C  C27  1  0.02680738  0.50758821  0.95922030  1
  C  C28  1  0.98242309  0.49466195  0.70965198  1
  C  C29  1  0.97371369  0.49221076  0.54085601  1
  C  C30  1  0.98698174  0.48591314  0.79369167  1
  C  C31  1  0.51727276  0.02844494  0.45822340  1
  C  C32  1  0.53760814  0.01909145  0.04440785  1
  C  C33  1  0.50836227  0.00049793  0.28866077  1
  C  C34  1  0.50226575  0.98753436  0.96159298  1
  C  C35  1  0.46573460  0.97898253  0.71243429  1
  C  C36  1  0.46126537  0.98849541  0.54031570  1
  C  C37  1  0.51384597  0.00904046  0.79508877  1
  C  C38  1  0.51954858  0.50654906  0.45954140  1
  C  C39  1  0.50284659  0.45173052  0.21477913  1
  C  C40  1  0.47958476  0.47940111  0.04169073  1
  C  C41  1  0.50708120  0.54502941  0.28924016  1
  C  C42  1  0.47076395  0.48375294  0.54155612  1
  C  C43  1  0.51294175  0.50329166  0.79219178  1
  Co  Co44  1  0.13200407  0.31207505  0.86917776  1
  Co  Co45  1  0.85334922  0.17172134  0.11768650  1
  Ti  Ti46  1  0.33300043  0.66151878  0.13310572  1
  Ti  Ti47  1  0.85100111  0.67492355  0.11306675  1
