# generated using pymatgen
data_YTiW6(C7N)2
_symmetry_space_group_name_H-M   'P 1'
_cell_length_a   6.02919966
_cell_length_b   6.00805671
_cell_length_c   16.14840046
_cell_angle_alpha   90.53043498
_cell_angle_beta   89.92311164
_cell_angle_gamma   119.83419780
_symmetry_Int_Tables_number   1
_chemical_formula_structural   YTiW6(C7N)2
_chemical_formula_sum   'Y2 Ti2 W12 C28 N4'
_cell_volume   507.40566845
_cell_formula_units_Z   2
loop_
 _symmetry_equiv_pos_site_id
 _symmetry_equiv_pos_as_xyz
  1  'x, y, z'
loop_
 _atom_site_type_symbol
 _atom_site_label
 _atom_site_symmetry_multiplicity
 _atom_site_fract_x
 _atom_site_fract_y
 _atom_site_fract_z
 _atom_site_occupancy
  W  W0  1  0.16090073  0.32412641  0.37339968  1
  W  W1  1  0.34596794  0.18462627  0.12548726  1
  W  W2  1  0.16119315  0.33124023  0.88103353  1
  W  W3  1  0.33585197  0.17316024  0.62837359  1
  W  W4  1  0.15422035  0.82701368  0.37299112  1
  W  W5  1  0.64816035  0.32573901  0.37557980  1
  W  W6  1  0.83024857  0.16335027  0.12045880  1
  W  W7  1  0.67291135  0.33467872  0.88149080  1
  W  W8  1  0.83264599  0.17144929  0.62413986  1
  W  W9  1  0.65523991  0.82662617  0.37448335  1
  W  W10  1  0.67326717  0.84527031  0.88016060  1
  W  W11  1  0.83227935  0.66543665  0.62606719  1
  C  C12  1  0.00129820  0.00419594  0.45761887  1
  C  C13  1  0.02783056  0.12874518  0.22327529  1
  C  C14  1  0.02659337  0.02380518  0.04525794  1
  C  C15  1  0.99009259  0.98763224  0.29668581  1
  C  C16  1  0.97546021  0.00877130  0.96323694  1
  C  C17  1  0.00133948  0.00385265  0.70264359  1
  C  C18  1  0.98270120  0.99373648  0.54191496  1
  C  C19  1  0.92974251  0.07888647  0.77906677  1
  C  C20  1  0.00923017  0.37358790  0.22543463  1
  C  C21  1  0.98693100  0.49008284  0.29702295  1
  C  C22  1  0.97650686  0.46561850  0.96705362  1
  C  C23  1  0.00966973  0.50355080  0.70298160  1
  C  C24  1  0.95334948  0.47698044  0.53651516  1
  C  C25  1  0.92930933  0.35549996  0.77849902  1
  C  C26  1  0.48211596  0.98265356  0.45612965  1
  C  C27  1  0.49731194  0.00334813  0.20389580  1
  C  C28  1  0.49770271  0.99834308  0.29041284  1
  C  C29  1  0.54861410  0.03095681  0.96335422  1
  C  C30  1  0.50274519  0.99468093  0.70358994  1
  C  C31  1  0.52213361  0.04829411  0.53683950  1
  C  C32  1  0.65546882  0.08242679  0.77819769  1
  C  C33  1  0.47350190  0.50573974  0.45979694  1
  C  C34  1  0.46472847  0.43566461  0.03664235  1
  C  C35  1  0.50701318  0.50535763  0.29147169  1
  C  C36  1  0.50591177  0.52287317  0.96019455  1
  C  C37  1  0.51292453  0.47664882  0.71455439  1
  C  C38  1  0.51028195  0.47741271  0.54110415  1
  C  C39  1  0.49193135  0.50056254  0.79898866  1
  Ti  Ti40  1  0.35469702  0.66893377  0.11824410  1
  Ti  Ti41  1  0.33200676  0.67361822  0.62558291  1
  N  N42  1  0.99480879  0.49635513  0.45621002  1
  N  N43  1  0.02580288  0.50686043  0.04531621  1
  N  N44  1  0.50040186  0.00191292  0.04443386  1
  N  N45  1  0.46618734  0.49758334  0.20853390  1
  Y  Y46  1  0.17020278  0.83854221  0.80559214  1
  Y  Y47  1  0.88056562  0.68356824  0.18004179  1
