# generated using pymatgen
data_TiOsW6(C7N)2
_symmetry_space_group_name_H-M   'P 1'
_cell_length_a   5.94475059
_cell_length_b   5.83487152
_cell_length_c   16.10680326
_cell_angle_alpha   89.86994734
_cell_angle_beta   89.66699502
_cell_angle_gamma   119.66715705
_symmetry_Int_Tables_number   1
_chemical_formula_structural   TiOsW6(C7N)2
_chemical_formula_sum   'Ti2 Os2 W12 C28 N4'
_cell_volume   485.44140943
_cell_formula_units_Z   2
loop_
 _symmetry_equiv_pos_site_id
 _symmetry_equiv_pos_as_xyz
  1  'x, y, z'
loop_
 _atom_site_type_symbol
 _atom_site_label
 _atom_site_symmetry_multiplicity
 _atom_site_fract_x
 _atom_site_fract_y
 _atom_site_fract_z
 _atom_site_occupancy
  Ti  Ti0  1  0.17312106  0.33637619  0.36897140  1
  Ti  Ti1  1  0.83823949  0.66607075  0.12884656  1
  W  W2  1  0.33566538  0.16035965  0.12766313  1
  W  W3  1  0.17178030  0.33537169  0.87829653  1
  W  W4  1  0.31567764  0.15934410  0.62477577  1
  W  W5  1  0.16925552  0.83994732  0.37356811  1
  W  W6  1  0.17985071  0.84118179  0.87368755  1
  W  W7  1  0.31786482  0.66116653  0.62581908  1
  W  W8  1  0.66594468  0.33599461  0.37686049  1
  W  W9  1  0.83292665  0.15790350  0.12621147  1
  W  W10  1  0.67804812  0.34115321  0.87182750  1
  W  W11  1  0.81368373  0.15875832  0.62469761  1
  W  W12  1  0.67609359  0.83670099  0.87280161  1
  W  W13  1  0.81758260  0.66313270  0.62407452  1
  C  C14  1  0.99032542  0.99742166  0.45645359  1
  C  C15  1  0.99733894  0.99791785  0.21120766  1
  C  C16  1  0.00526227  0.00761509  0.04387967  1
  C  C17  1  0.01904085  0.98724171  0.96076564  1
  C  C18  1  0.96780141  0.97759431  0.70912672  1
  C  C19  1  0.98609879  0.00368036  0.54059500  1
  C  C20  1  0.03615975  0.03218690  0.79031198  1
  C  C21  1  0.02162405  0.54536288  0.46054260  1
  C  C22  1  0.01279359  0.46314520  0.21074156  1
  C  C23  1  0.01980834  0.47182540  0.04063343  1
  C  C24  1  0.99267581  0.52933170  0.28781632  1
  C  C25  1  0.00935667  0.52597181  0.96027222  1
  C  C26  1  0.95800008  0.48205800  0.70998774  1
  C  C27  1  0.96427278  0.46591563  0.53895611  1
  C  C28  1  0.04036346  0.51177368  0.78992721  1
  C  C29  1  0.49307527  0.99675136  0.45828142  1
  C  C30  1  0.49819644  0.99437101  0.04256044  1
  C  C31  1  0.50605183  0.00581700  0.29247322  1
  C  C32  1  0.51986070  0.01089188  0.95797782  1
  C  C33  1  0.46419262  0.98062000  0.70814543  1
  C  C34  1  0.52872114  0.01259850  0.79015900  1
  C  C35  1  0.52779156  0.51915003  0.45913565  1
  C  C36  1  0.46256280  0.47596724  0.21110518  1
  C  C37  1  0.46359432  0.47115612  0.04016339  1
  C  C38  1  0.54335555  0.52302824  0.28989921  1
  C  C39  1  0.53658410  0.51833218  0.95963462  1
  C  C40  1  0.46332253  0.48533468  0.54075700  1
  C  C41  1  0.51458711  0.51280804  0.78907306  1
  N  N42  1  0.01118613  0.01734592  0.29341275  1
  N  N43  1  0.50284809  0.00053944  0.20814280  1
  N  N44  1  0.47796365  0.98780567  0.54293664  1
  N  N45  1  0.47398197  0.49049798  0.70627815  1
  Os  Os46  1  0.33894403  0.66381194  0.12480827  1
  Os  Os47  1  0.66652366  0.84066924  0.37573718  1
