# generated using pymatgen
data_HfTiW6(C7N)2
_symmetry_space_group_name_H-M   'P 1'
_cell_length_a   6.05686349
_cell_length_b   5.99249570
_cell_length_c   16.09875172
_cell_angle_alpha   90.39214876
_cell_angle_beta   89.93897582
_cell_angle_gamma   120.41894376
_symmetry_Int_Tables_number   1
_chemical_formula_structural   HfTiW6(C7N)2
_chemical_formula_sum   'Hf2 Ti2 W12 C28 N4'
_cell_volume   503.86892436
_cell_formula_units_Z   2
loop_
 _symmetry_equiv_pos_site_id
 _symmetry_equiv_pos_as_xyz
  1  'x, y, z'
loop_
 _atom_site_type_symbol
 _atom_site_label
 _atom_site_symmetry_multiplicity
 _atom_site_fract_x
 _atom_site_fract_y
 _atom_site_fract_z
 _atom_site_occupancy
  W  W0  1  0.17098491  0.34264193  0.37461251  1
  W  W1  1  0.33448302  0.17031591  0.12945465  1
  W  W2  1  0.17001495  0.34081945  0.87661015  1
  W  W3  1  0.34817118  0.17410751  0.62168651  1
  W  W4  1  0.17303672  0.83521455  0.37348445  1
  W  W5  1  0.32581703  0.65310280  0.12457080  1
  W  W6  1  0.33579368  0.66138013  0.62459842  1
  W  W7  1  0.66905833  0.34437108  0.37521527  1
  W  W8  1  0.67052148  0.34201994  0.87408125  1
  W  W9  1  0.82820429  0.17338678  0.62645632  1
  W  W10  1  0.82515539  0.65063367  0.12516528  1
  W  W11  1  0.83333208  0.66320052  0.62385452  1
  C  C12  1  0.04007526  0.04782943  0.46094638  1
  C  C13  1  0.97567744  0.94456820  0.21282080  1
  C  C14  1  0.97600425  0.93878612  0.03649691  1
  C  C15  1  0.03361719  0.05207666  0.28676351  1
  C  C16  1  0.02625520  0.06967933  0.96843925  1
  C  C17  1  0.97880033  0.95453868  0.71260126  1
  C  C18  1  0.97825960  0.96421068  0.53842221  1
  C  C19  1  0.03353200  0.06347117  0.78595977  1
  C  C20  1  0.00752316  0.52293391  0.45727932  1
  C  C21  1  0.00075051  0.49734807  0.20621827  1
  C  C22  1  0.99834386  0.49945003  0.04042355  1
  C  C23  1  0.99298183  0.50079609  0.29146034  1
  C  C24  1  0.01989100  0.51436763  0.70826733  1
  C  C25  1  0.99766789  0.47955961  0.54134173  1
  C  C26  1  0.98587648  0.48010476  0.79171715  1
  C  C27  1  0.47263924  0.01444833  0.45933971  1
  C  C28  1  0.46684625  0.94678811  0.21233096  1
  C  C29  1  0.45998268  0.94287630  0.03572642  1
  C  C30  1  0.51452992  0.05011916  0.28717426  1
  C  C31  1  0.53679378  0.06177787  0.96498484  1
  C  C32  1  0.49190422  0.99066594  0.70941659  1
  C  C33  1  0.52500014  0.00162433  0.54040416  1
  C  C34  1  0.49757659  0.50333827  0.45594585  1
  C  C35  1  0.48892281  0.48003324  0.21127694  1
  C  C36  1  0.48598560  0.46741880  0.04377277  1
  C  C37  1  0.49796147  0.48635698  0.95803805  1
  C  C38  1  0.48467090  0.48420036  0.70848416  1
  C  C39  1  0.50232473  0.48983388  0.54095301  1
  Hf  Hf40  1  0.17105496  0.83872624  0.87657269  1
  Hf  Hf41  1  0.66572304  0.83560772  0.87199358  1
  N  N42  1  0.00144053  0.50821007  0.95721504  1
  N  N43  1  0.50152786  0.01404419  0.79201776  1
  N  N44  1  0.50684987  0.51233252  0.29493740  1
  N  N45  1  0.50221606  0.49475403  0.79294276  1
  Ti  Ti46  1  0.83352064  0.16703211  0.12303191  1
  Ti  Ti47  1  0.66269967  0.82889693  0.37449324  1
