# generated using pymatgen
data_TiNbW6(C7N)2
_symmetry_space_group_name_H-M   'P 1'
_cell_length_a   5.97145837
_cell_length_b   5.96420830
_cell_length_c   16.06523659
_cell_angle_alpha   90.06611861
_cell_angle_beta   90.30790215
_cell_angle_gamma   119.91056037
_symmetry_Int_Tables_number   1
_chemical_formula_structural   TiNbW6(C7N)2
_chemical_formula_sum   'Ti2 Nb2 W12 C28 N4'
_cell_volume   495.94230327
_cell_formula_units_Z   2
loop_
 _symmetry_equiv_pos_site_id
 _symmetry_equiv_pos_as_xyz
  1  'x, y, z'
loop_
 _atom_site_type_symbol
 _atom_site_label
 _atom_site_symmetry_multiplicity
 _atom_site_fract_x
 _atom_site_fract_y
 _atom_site_fract_z
 _atom_site_occupancy
  W  W0  1  0.15716627  0.32180025  0.37303724  1
  W  W1  1  0.34596002  0.16910969  0.12509988  1
  W  W2  1  0.17526383  0.34038321  0.87788755  1
  W  W3  1  0.32421839  0.16838590  0.62518300  1
  W  W4  1  0.18042494  0.84698706  0.87472383  1
  W  W5  1  0.33372629  0.67399749  0.62677484  1
  W  W6  1  0.65469277  0.32396203  0.37155567  1
  W  W7  1  0.83908078  0.16329746  0.12743690  1
  W  W8  1  0.67050857  0.33750685  0.88029026  1
  W  W9  1  0.66022724  0.82456680  0.37278104  1
  W  W10  1  0.67708062  0.84398595  0.87384911  1
  W  W11  1  0.82900594  0.66667573  0.62510989  1
  C  C12  1  0.97401779  0.01963395  0.46043507  1
  C  C13  1  0.04976365  0.02715274  0.21058274  1
  C  C14  1  0.99573839  0.99484782  0.04451639  1
  C  C15  1  0.94990666  0.97793395  0.28596691  1
  C  C16  1  0.00595010  0.99308028  0.95978082  1
  C  C17  1  0.98457971  0.01203021  0.70773092  1
  C  C18  1  0.02435937  0.02862900  0.79199450  1
  C  C19  1  0.97936540  0.45272133  0.45889496  1
  C  C20  1  0.06213419  0.51799312  0.21124638  1
  C  C21  1  0.97181225  0.43574902  0.03581755  1
  C  C22  1  0.94932839  0.45983858  0.28419818  1
  C  C23  1  0.03880875  0.55011597  0.96280566  1
  C  C24  1  0.98684483  0.53010630  0.71227751  1
  C  C25  1  0.00423338  0.53833486  0.53732868  1
  C  C26  1  0.02213605  0.48828075  0.79195609  1
  C  C27  1  0.52043776  0.01172329  0.45685151  1
  C  C28  1  0.49856579  0.99080317  0.20855225  1
  C  C29  1  0.51289605  0.00832043  0.95961273  1
  C  C30  1  0.46980234  0.98021051  0.71130158  1
  C  C31  1  0.45073560  0.97013953  0.53762864  1
  C  C32  1  0.53085269  0.04505515  0.79239950  1
  C  C33  1  0.48822807  0.49086806  0.45586984  1
  C  C34  1  0.49481286  0.48030896  0.21005212  1
  C  C35  1  0.49992874  0.45606690  0.03671836  1
  C  C36  1  0.53147392  0.55501837  0.96113801  1
  C  C37  1  0.49493981  0.50150744  0.70811375  1
  C  C38  1  0.48892918  0.48966959  0.54171981  1
  C  C39  1  0.51267665  0.50072480  0.79304478  1
  N  N40  1  0.00565822  0.99791561  0.54084412  1
  N  N41  1  0.51274927  0.00419009  0.04471407  1
  N  N42  1  0.47911560  0.98372596  0.29254534  1
  N  N43  1  0.48781482  0.49050826  0.29384161  1
  Ti  Ti44  1  0.17292160  0.83399154  0.37561102  1
  Ti  Ti45  1  0.83298395  0.67010224  0.13279018  1
  Nb  Nb46  1  0.34213776  0.66685329  0.11862821  1
  Nb  Nb47  1  0.82600473  0.16519050  0.61876098  1
