# generated using pymatgen
data_HfTiW6(C7N)2
_symmetry_space_group_name_H-M   'P 1'
_cell_length_a   6.02308002
_cell_length_b   5.99331608
_cell_length_c   16.07184441
_cell_angle_alpha   89.64762911
_cell_angle_beta   90.25909051
_cell_angle_gamma   120.01929606
_symmetry_Int_Tables_number   1
_chemical_formula_structural   HfTiW6(C7N)2
_chemical_formula_sum   'Hf2 Ti2 W12 C28 N4'
_cell_volume   502.32971736
_cell_formula_units_Z   2
loop_
 _symmetry_equiv_pos_site_id
 _symmetry_equiv_pos_as_xyz
  1  'x, y, z'
loop_
 _atom_site_type_symbol
 _atom_site_label
 _atom_site_symmetry_multiplicity
 _atom_site_fract_x
 _atom_site_fract_y
 _atom_site_fract_z
 _atom_site_occupancy
  W  W0  1  0.16984541  0.31851566  0.37659065  1
  W  W1  1  0.33524389  0.16971010  0.12458288  1
  W  W2  1  0.17181968  0.34683750  0.87348398  1
  W  W3  1  0.32358220  0.16242599  0.62866373  1
  W  W4  1  0.33158846  0.66163463  0.12669073  1
  W  W5  1  0.32696527  0.65928252  0.62379339  1
  W  W6  1  0.67106818  0.32710282  0.37000102  1
  W  W7  1  0.83516530  0.17050395  0.12495455  1
  W  W8  1  0.66684164  0.34612982  0.87414722  1
  W  W9  1  0.67459682  0.82625398  0.37638806  1
  W  W10  1  0.83037563  0.66385381  0.12690964  1
  W  W11  1  0.82148505  0.66465146  0.62247556  1
  N  N12  1  0.00634210  0.99262977  0.45954209  1
  N  N13  1  0.00238615  0.99866513  0.20768368  1
  N  N14  1  0.99089579  0.00409009  0.54493897  1
  N  N15  1  0.50409839  0.51623276  0.79190382  1
  C  C16  1  0.98035777  0.96863183  0.03979145  1
  C  C17  1  0.99841764  0.01438921  0.29042761  1
  C  C18  1  0.03543036  0.06799978  0.96418024  1
  C  C19  1  0.96402228  0.94819087  0.71103993  1
  C  C20  1  0.03797219  0.06006679  0.78336141  1
  C  C21  1  0.95955968  0.43201304  0.46254319  1
  C  C22  1  0.98652441  0.49196221  0.20853522  1
  C  C23  1  0.00163056  0.49925605  0.04272231  1
  C  C24  1  0.00942290  0.45356841  0.29009625  1
  C  C25  1  0.99708375  0.49778274  0.95684604  1
  C  C26  1  0.00489791  0.53235114  0.70828299  1
  C  C27  1  0.01052147  0.52939673  0.53946791  1
  C  C28  1  0.99786128  0.50280732  0.79137075  1
  C  C29  1  0.55955048  0.02523535  0.46418740  1
  C  C30  1  0.49418091  0.01870468  0.20916150  1
  C  C31  1  0.48320057  0.96650085  0.04016492  1
  C  C32  1  0.54365729  0.98345774  0.28800612  1
  C  C33  1  0.53476666  0.07890097  0.96671103  1
  C  C34  1  0.46301942  0.94251749  0.71258557  1
  C  C35  1  0.45883129  0.99006582  0.54043147  1
  C  C36  1  0.50768996  0.06303473  0.78311042  1
  C  C37  1  0.51872204  0.48414139  0.45783863  1
  C  C38  1  0.49818823  0.48520765  0.20766763  1
  C  C39  1  0.50063155  0.51399457  0.04291859  1
  C  C40  1  0.49660685  0.49946100  0.29377634  1
  C  C41  1  0.49253085  0.49255522  0.95757681  1
  C  C42  1  0.49386652  0.49478086  0.70662281  1
  C  C43  1  0.48012394  0.47313228  0.54225387  1
  Hf  Hf44  1  0.17079152  0.82180775  0.38611019  1
  Hf  Hf45  1  0.66628950  0.84191012  0.86970270  1
  Ti  Ti46  1  0.16006778  0.83277734  0.87525260  1
  Ti  Ti47  1  0.83128247  0.16487811  0.61450615  1
