# generated using pymatgen
data_TiMoW6(C7N)2
_symmetry_space_group_name_H-M   'P 1'
_cell_length_a   5.94707972
_cell_length_b   5.87439753
_cell_length_c   16.14261226
_cell_angle_alpha   89.76635004
_cell_angle_beta   89.83360358
_cell_angle_gamma   119.46390168
_symmetry_Int_Tables_number   1
_chemical_formula_structural   TiMoW6(C7N)2
_chemical_formula_sum   'Ti2 Mo2 W12 C28 N4'
_cell_volume   491.00041572
_cell_formula_units_Z   2
loop_
 _symmetry_equiv_pos_site_id
 _symmetry_equiv_pos_as_xyz
  1  'x, y, z'
loop_
 _atom_site_type_symbol
 _atom_site_label
 _atom_site_symmetry_multiplicity
 _atom_site_fract_x
 _atom_site_fract_y
 _atom_site_fract_z
 _atom_site_occupancy
  W  W0  1  0.17354708  0.33472404  0.38088724  1
  W  W1  1  0.33341254  0.16649432  0.12151630  1
  W  W2  1  0.16288848  0.33664869  0.87460211  1
  W  W3  1  0.33398512  0.16966384  0.62961433  1
  W  W4  1  0.17855490  0.83333346  0.37395713  1
  W  W5  1  0.32550121  0.65812155  0.12663497  1
  W  W6  1  0.32579999  0.66655963  0.62544403  1
  W  W7  1  0.68323117  0.33565754  0.37326822  1
  W  W8  1  0.66099289  0.33479951  0.87542378  1
  W  W9  1  0.83089700  0.16799339  0.62210733  1
  W  W10  1  0.67507080  0.83104604  0.37356599  1
  W  W11  1  0.82666960  0.65711906  0.12531958  1
  C  C12  1  0.01752950  0.96607943  0.46041391  1
  C  C13  1  0.98717882  0.99518564  0.20868633  1
  C  C14  1  0.02717227  0.00723736  0.29158750  1
  C  C15  1  0.04094545  0.02255266  0.96373683  1
  C  C16  1  0.97418515  0.02826408  0.71098601  1
  C  C17  1  0.01206292  0.04294562  0.53784044  1
  C  C18  1  0.03445615  0.99803478  0.78692741  1
  C  C19  1  0.01551333  0.50606200  0.46091833  1
  C  C20  1  0.96885268  0.48308674  0.21090832  1
  C  C21  1  0.98306029  0.49476079  0.04217695  1
  C  C22  1  0.03925259  0.49536557  0.29151171  1
  C  C23  1  0.00422734  0.48983774  0.95841792  1
  C  C24  1  0.99739700  0.49602523  0.70717904  1
  C  C25  1  0.99452068  0.49795514  0.79141207  1
  C  C26  1  0.52808459  0.01952313  0.45945828  1
  C  C27  1  0.47187173  0.99006530  0.20864185  1
  C  C28  1  0.48125699  0.95663363  0.04033279  1
  C  C29  1  0.53208513  0.00668029  0.28987785  1
  C  C30  1  0.49569797  0.03758601  0.96262519  1
  C  C31  1  0.49445862  0.97979025  0.70891508  1
  C  C32  1  0.47726739  0.99496301  0.54242595  1
  C  C33  1  0.49944610  0.04462405  0.78868977  1
  C  C34  1  0.54278272  0.51100362  0.46074555  1
  C  C35  1  0.48336557  0.47076273  0.20756126  1
  C  C36  1  0.48457417  0.49713706  0.03909380  1
  C  C37  1  0.52026131  0.51741221  0.29080895  1
  C  C38  1  0.46051176  0.47170349  0.54008538  1
  C  C39  1  0.50342938  0.50028593  0.78941749  1
  N  N40  1  0.97782901  0.98745140  0.04206715  1
  N  N41  1  0.99436795  0.50661135  0.54449874  1
  N  N42  1  0.50115802  0.51607046  0.95537880  1
  N  N43  1  0.48567149  0.49781073  0.70767439  1
  Mo  Mo44  1  0.15550860  0.83522195  0.87570947  1
  Mo  Mo45  1  0.82813327  0.15959528  0.12609027  1
  Ti  Ti46  1  0.64854442  0.82330967  0.87444686  1
  Ti  Ti47  1  0.82678885  0.66020459  0.62041136  1
