# generated using pymatgen
data_TiNbW6(C7N)2
_symmetry_space_group_name_H-M   'P 1'
_cell_length_a   5.97554110
_cell_length_b   5.97823147
_cell_length_c   16.07625018
_cell_angle_alpha   90.31706839
_cell_angle_beta   90.19104730
_cell_angle_gamma   120.13649905
_symmetry_Int_Tables_number   1
_chemical_formula_structural   TiNbW6(C7N)2
_chemical_formula_sum   'Ti2 Nb2 W12 C28 N4'
_cell_volume   496.64818834
_cell_formula_units_Z   2
loop_
 _symmetry_equiv_pos_site_id
 _symmetry_equiv_pos_as_xyz
  1  'x, y, z'
loop_
 _atom_site_type_symbol
 _atom_site_label
 _atom_site_symmetry_multiplicity
 _atom_site_fract_x
 _atom_site_fract_y
 _atom_site_fract_z
 _atom_site_occupancy
  W  W0  1  0.16079462  0.32789804  0.37199311  1
  W  W1  1  0.33772849  0.18935536  0.12310774  1
  W  W2  1  0.17317619  0.34372464  0.87767958  1
  W  W3  1  0.15932760  0.82174973  0.37664242  1
  W  W4  1  0.16982388  0.83911078  0.87173126  1
  W  W5  1  0.32575693  0.65183222  0.62493189  1
  W  W6  1  0.66195027  0.32525558  0.36916223  1
  W  W7  1  0.83933650  0.18185186  0.12632050  1
  W  W8  1  0.67518052  0.34488547  0.87876039  1
  W  W9  1  0.66052837  0.82201323  0.37371935  1
  W  W10  1  0.83822913  0.67864053  0.12736859  1
  W  W11  1  0.82778822  0.65196978  0.62496004  1
  C  C12  1  0.01027355  0.03176038  0.45980012  1
  C  C13  1  0.01771168  0.01537670  0.20798239  1
  C  C14  1  0.98612938  0.99009674  0.04247102  1
  C  C15  1  0.98618604  0.98496895  0.29181550  1
  C  C16  1  0.04104393  0.02691445  0.96055792  1
  C  C17  1  0.97221927  0.93424046  0.71666134  1
  C  C18  1  0.96982922  0.92844067  0.53417888  1
  C  C19  1  0.03112092  0.05342787  0.78841952  1
  C  C20  1  0.98580309  0.47605220  0.45622577  1
  C  C21  1  0.99972590  0.52029016  0.04351256  1
  C  C22  1  0.00256262  0.50811511  0.29116330  1
  C  C23  1  0.02033059  0.52500859  0.95841520  1
  C  C24  1  0.99495118  0.48653371  0.70740510  1
  C  C25  1  0.99698799  0.49502423  0.54172271  1
  C  C26  1  0.98989019  0.48698967  0.79361068  1
  C  C27  1  0.51757625  0.03203028  0.45904689  1
  C  C28  1  0.53476222  0.05553078  0.21277800  1
  C  C29  1  0.54975150  0.04507957  0.03720385  1
  C  C30  1  0.45869421  0.95698362  0.28937011  1
  C  C31  1  0.44652400  0.98974944  0.96208759  1
  C  C32  1  0.46542116  0.93766434  0.71702362  1
  C  C33  1  0.45973747  0.93275593  0.53418249  1
  C  C34  1  0.52616674  0.05630347  0.78896195  1
  C  C35  1  0.49795034  0.49365907  0.45535514  1
  C  C36  1  0.52402320  0.50918465  0.04024231  1
  C  C37  1  0.50069488  0.49724470  0.70936531  1
  C  C38  1  0.49341872  0.48269059  0.54072677  1
  C  C39  1  0.50003174  0.48647012  0.79418066  1
  Nb  Nb40  1  0.33123558  0.16238657  0.62617425  1
  Nb  Nb41  1  0.33830572  0.67842841  0.12849353  1
  N  N42  1  0.01009339  0.51363549  0.20678055  1
  N  N43  1  0.49924880  0.50527365  0.20677107  1
  N  N44  1  0.49791057  0.50152501  0.29287090  1
  N  N45  1  0.51042394  0.52456342  0.95736734  1
  Ti  Ti46  1  0.83416408  0.16668807  0.62438760  1
  Ti  Ti47  1  0.66947919  0.83062567  0.87631093  1
