# generated using pymatgen
data_ZrTiW6(C7N)2
_symmetry_space_group_name_H-M   'P 1'
_cell_length_a   6.03183220
_cell_length_b   5.99377736
_cell_length_c   16.07586057
_cell_angle_alpha   90.37232178
_cell_angle_beta   90.14429246
_cell_angle_gamma   120.13736010
_symmetry_Int_Tables_number   1
_chemical_formula_structural   ZrTiW6(C7N)2
_chemical_formula_sum   'Zr2 Ti2 W12 C28 N4'
_cell_volume   502.61224104
_cell_formula_units_Z   2
loop_
 _symmetry_equiv_pos_site_id
 _symmetry_equiv_pos_as_xyz
  1  'x, y, z'
loop_
 _atom_site_type_symbol
 _atom_site_label
 _atom_site_symmetry_multiplicity
 _atom_site_fract_x
 _atom_site_fract_y
 _atom_site_fract_z
 _atom_site_occupancy
  Zr  Zr0  1  0.15516605  0.33512181  0.36852339  1
  Zr  Zr1  1  0.83982729  0.16383749  0.64476420  1
  Ti  Ti2  1  0.35173312  0.17686761  0.12405439  1
  Ti  Ti3  1  0.85589742  0.17678032  0.11597300  1
  C  C4  1  0.96411663  0.96244131  0.46261055  1
  C  C5  1  0.97080274  0.02761921  0.21046302  1
  C  C6  1  0.97265011  0.93194450  0.03778750  1
  C  C7  1  0.98073836  0.94523973  0.28576010  1
  C  C8  1  0.03134476  0.02762726  0.96188005  1
  C  C9  1  0.02481788  0.95778777  0.71155793  1
  C  C10  1  0.99109676  0.00619812  0.79200167  1
  C  C11  1  0.94961985  0.50357061  0.46190272  1
  C  C12  1  0.00607300  0.47706791  0.20911088  1
  C  C13  1  0.01334795  0.52491562  0.04209358  1
  C  C14  1  0.95991225  0.52300167  0.28716283  1
  C  C15  1  0.02341070  0.52479820  0.95700545  1
  C  C16  1  0.04413123  0.57064345  0.71238675  1
  C  C17  1  0.05512595  0.53087552  0.53579439  1
  C  C18  1  0.99892340  0.48517638  0.79166638  1
  C  C19  1  0.47092240  0.94753508  0.21339609  1
  C  C20  1  0.48261938  0.94310569  0.03556042  1
  C  C21  1  0.49254383  0.00909248  0.29404054  1
  C  C22  1  0.51809927  0.03758510  0.96007195  1
  C  C23  1  0.44109012  0.98257544  0.71384252  1
  C  C24  1  0.45922628  0.99148329  0.53704964  1
  C  C25  1  0.53421329  0.00912587  0.79175382  1
  C  C26  1  0.49781836  0.49329197  0.20792212  1
  C  C27  1  0.52913352  0.51283119  0.04481879  1
  C  C28  1  0.51032799  0.50024434  0.95860471  1
  C  C29  1  0.52438288  0.50689965  0.70535090  1
  C  C30  1  0.49403487  0.49846630  0.54002827  1
  C  C31  1  0.51470490  0.51128739  0.79208900  1
  W  W32  1  0.18111041  0.33870986  0.87617002  1
  W  W33  1  0.33817304  0.16739566  0.62141866  1
  W  W34  1  0.15223022  0.83756680  0.37668272  1
  W  W35  1  0.34389880  0.66842549  0.12482001  1
  W  W36  1  0.17525078  0.83426982  0.86890645  1
  W  W37  1  0.33619062  0.66520984  0.62256888  1
  W  W38  1  0.65261341  0.33374755  0.37568280  1
  W  W39  1  0.67918704  0.34464604  0.87614538  1
  W  W40  1  0.65344850  0.82912678  0.37622234  1
  W  W41  1  0.83917004  0.66475463  0.13029170  1
  W  W42  1  0.67433216  0.83501326  0.87738029  1
  W  W43  1  0.83494592  0.66567761  0.61994317  1
  N  N44  1  0.99139049  0.01268226  0.54361431  1
  N  N45  1  0.49926844  0.99869766  0.45585229  1
  N  N46  1  0.48905996  0.50364101  0.45509134  1
  N  N47  1  0.50187763  0.50539740  0.29218215  1
