# generated using pymatgen
data_TiReW6(C7N)2
_symmetry_space_group_name_H-M   'P 1'
_cell_length_a   5.84917804
_cell_length_b   5.93452717
_cell_length_c   16.14879451
_cell_angle_alpha   90.11483215
_cell_angle_beta   90.02752436
_cell_angle_gamma   119.63003291
_symmetry_Int_Tables_number   1
_chemical_formula_structural   TiReW6(C7N)2
_chemical_formula_sum   'Ti2 Re2 W12 C28 N4'
_cell_volume   487.25604000
_cell_formula_units_Z   2
loop_
 _symmetry_equiv_pos_site_id
 _symmetry_equiv_pos_as_xyz
  1  'x, y, z'
loop_
 _atom_site_type_symbol
 _atom_site_label
 _atom_site_symmetry_multiplicity
 _atom_site_fract_x
 _atom_site_fract_y
 _atom_site_fract_z
 _atom_site_occupancy
  W  W0  1  0.17064254  0.33924325  0.37567547  1
  W  W1  1  0.33857847  0.17449384  0.12349349  1
  W  W2  1  0.15854302  0.31572660  0.87209623  1
  W  W3  1  0.33923143  0.17439101  0.62576412  1
  W  W4  1  0.33677497  0.67343701  0.12217997  1
  W  W5  1  0.15839031  0.81661645  0.87587327  1
  W  W6  1  0.66517621  0.33739829  0.37807844  1
  W  W7  1  0.83403622  0.16757264  0.12923180  1
  W  W8  1  0.66027327  0.31703809  0.87004123  1
  W  W9  1  0.83082785  0.16508643  0.62229038  1
  W  W10  1  0.83797346  0.67584367  0.12029049  1
  W  W11  1  0.83666798  0.67245271  0.63003122  1
  C  C12  1  0.97974554  0.01628969  0.46095350  1
  C  C13  1  0.02069766  0.99816989  0.21003740  1
  C  C14  1  0.00276088  0.03118663  0.04069742  1
  C  C15  1  0.97588381  0.01624647  0.29074885  1
  C  C16  1  0.97753161  0.96430183  0.95939694  1
  C  C17  1  0.00707957  0.01896115  0.70838411  1
  C  C18  1  0.01146331  0.99556625  0.54287424  1
  C  C19  1  0.98107256  0.96221422  0.79089602  1
  C  C20  1  0.00784790  0.47092936  0.46453312  1
  C  C21  1  0.02033393  0.54024385  0.21003513  1
  C  C22  1  0.01295394  0.51127835  0.03897894  1
  C  C23  1  0.97258999  0.46520227  0.28919346  1
  C  C24  1  0.97644863  0.46180068  0.95612123  1
  C  C25  1  0.98497934  0.52855489  0.54169973  1
  C  C26  1  0.98878510  0.47314215  0.78888599  1
  C  C27  1  0.48668871  0.00262289  0.20948802  1
  C  C28  1  0.52446051  0.02318823  0.04101150  1
  C  C29  1  0.53236809  0.02376280  0.29208094  1
  C  C30  1  0.48735125  0.96621118  0.95857697  1
  C  C31  1  0.52975064  0.04268552  0.71138059  1
  C  C32  1  0.51841411  0.04165568  0.53700130  1
  C  C33  1  0.47354479  0.95012036  0.78927158  1
  C  C34  1  0.50302590  0.51372938  0.46010301  1
  C  C35  1  0.51226246  0.51150345  0.20762372  1
  C  C36  1  0.50676065  0.51079874  0.04008867  1
  C  C37  1  0.51753760  0.51188953  0.29269234  1
  C  C38  1  0.48500620  0.47057174  0.95628725  1
  C  C39  1  0.51948507  0.50888000  0.54409791  1
  Ti  Ti40  1  0.17612868  0.84600205  0.37237138  1
  Ti  Ti41  1  0.33606353  0.66415987  0.63370373  1
  N  N42  1  0.00777011  0.50488728  0.70685926  1
  N  N43  1  0.48014310  0.98769396  0.45759917  1
  N  N44  1  0.49945068  0.50347101  0.70807078  1
  N  N45  1  0.48945956  0.47947555  0.79269959  1
  Re  Re46  1  0.66963171  0.84028047  0.37625545  1
  Re  Re47  1  0.65740718  0.81302259  0.87425462  1
