# generated using pymatgen
data_TaTiW6(C7N)2
_symmetry_space_group_name_H-M   'P 1'
_cell_length_a   5.98115276
_cell_length_b   5.94098056
_cell_length_c   16.11665625
_cell_angle_alpha   90.01661409
_cell_angle_beta   90.02007166
_cell_angle_gamma   119.71461702
_symmetry_Int_Tables_number   1
_chemical_formula_structural   TaTiW6(C7N)2
_chemical_formula_sum   'Ta2 Ti2 W12 C28 N4'
_cell_volume   497.38220905
_cell_formula_units_Z   2
loop_
 _symmetry_equiv_pos_site_id
 _symmetry_equiv_pos_as_xyz
  1  'x, y, z'
loop_
 _atom_site_type_symbol
 _atom_site_label
 _atom_site_symmetry_multiplicity
 _atom_site_fract_x
 _atom_site_fract_y
 _atom_site_fract_z
 _atom_site_occupancy
  W  W0  1  0.17342431  0.32966348  0.37593038  1
  W  W1  1  0.33057097  0.17163004  0.12560717  1
  W  W2  1  0.16482468  0.33103966  0.87309857  1
  W  W3  1  0.32753495  0.16166865  0.62250863  1
  W  W4  1  0.17603427  0.84121316  0.37068769  1
  W  W5  1  0.34232755  0.67956501  0.12476070  1
  W  W6  1  0.16420819  0.83636319  0.87751156  1
  W  W7  1  0.66161518  0.33212464  0.87512703  1
  W  W8  1  0.82907255  0.15976355  0.62372750  1
  W  W9  1  0.67807710  0.84115984  0.37697557  1
  W  W10  1  0.83467960  0.67535292  0.12579110  1
  W  W11  1  0.66981058  0.83533390  0.87576105  1
  C  C12  1  0.01966524  0.99584564  0.45746278  1
  C  C13  1  0.99884861  0.00222118  0.04386922  1
  C  C14  1  0.00439336  0.01230559  0.29037451  1
  C  C15  1  0.00936928  0.02329101  0.95873943  1
  C  C16  1  0.00335985  0.00762611  0.70692554  1
  C  C17  1  0.98681158  0.98026660  0.54251102  1
  C  C18  1  0.99847394  0.98973754  0.79231550  1
  C  C19  1  0.04050428  0.55445133  0.45968373  1
  C  C20  1  0.98834162  0.54404302  0.21483418  1
  C  C21  1  0.99527751  0.54190703  0.03809905  1
  C  C22  1  0.03227234  0.47835175  0.28833720  1
  C  C23  1  0.00994099  0.48016402  0.95926620  1
  C  C24  1  0.97276576  0.43626448  0.71495777  1
  C  C25  1  0.97755194  0.44067815  0.53232189  1
  C  C26  1  0.01713323  0.54136566  0.78948087  1
  C  C27  1  0.51043477  0.99974610  0.45975135  1
  C  C28  1  0.46576053  0.01093240  0.21315909  1
  C  C29  1  0.45522270  0.97634866  0.03758265  1
  C  C30  1  0.53197406  0.98672803  0.29004150  1
  C  C31  1  0.49093741  0.99538870  0.70788371  1
  C  C32  1  0.49862693  0.99787590  0.79294511  1
  C  C33  1  0.49578129  0.50300727  0.20788439  1
  C  C34  1  0.48425524  0.50313096  0.04229400  1
  C  C35  1  0.50581109  0.50941335  0.29252712  1
  C  C36  1  0.51304193  0.49983367  0.95781808  1
  C  C37  1  0.45901475  0.43723033  0.71293723  1
  C  C38  1  0.46722529  0.47043920  0.53750436  1
  C  C39  1  0.52269670  0.52865354  0.78994118  1
  N  N40  1  0.99731765  0.01495590  0.20611146  1
  N  N41  1  0.51637235  0.01339784  0.95793948  1
  N  N42  1  0.48555127  0.98200116  0.54292656  1
  N  N43  1  0.51732522  0.50707699  0.45758564  1
  Ta  Ta44  1  0.33499367  0.66574219  0.62471186  1
  Ta  Ta45  1  0.66924947  0.33317293  0.37630594  1
  Ti  Ti46  1  0.84051489  0.16767313  0.12711664  1
  Ti  Ti47  1  0.83100335  0.67385461  0.62836683  1
