# generated using pymatgen
data_TaTiW6(C7N)2
_symmetry_space_group_name_H-M   'P 1'
_cell_length_a   5.94721967
_cell_length_b   5.94491995
_cell_length_c   16.19072490
_cell_angle_alpha   89.91841532
_cell_angle_beta   89.95610115
_cell_angle_gamma   119.76637879
_symmetry_Int_Tables_number   1
_chemical_formula_structural   TaTiW6(C7N)2
_chemical_formula_sum   'Ta2 Ti2 W12 C28 N4'
_cell_volume   496.90506874
_cell_formula_units_Z   2
loop_
 _symmetry_equiv_pos_site_id
 _symmetry_equiv_pos_as_xyz
  1  'x, y, z'
loop_
 _atom_site_type_symbol
 _atom_site_label
 _atom_site_symmetry_multiplicity
 _atom_site_fract_x
 _atom_site_fract_y
 _atom_site_fract_z
 _atom_site_occupancy
  W  W0  1  0.16394833  0.33541098  0.37342287  1
  W  W1  1  0.33201453  0.16926292  0.12512971  1
  W  W2  1  0.33323928  0.66623351  0.12589403  1
  W  W3  1  0.16797000  0.83429108  0.87351481  1
  W  W4  1  0.32859032  0.67553680  0.62521429  1
  W  W5  1  0.83384139  0.16284563  0.12633937  1
  W  W6  1  0.66822086  0.33411459  0.87341637  1
  W  W7  1  0.82724857  0.17229945  0.62465982  1
  W  W8  1  0.66416299  0.83467402  0.37249537  1
  W  W9  1  0.83047722  0.66578917  0.12112914  1
  W  W10  1  0.66840356  0.83389662  0.87275317  1
  W  W11  1  0.83043593  0.67061205  0.62620879  1
  C  C12  1  0.98335529  0.01482184  0.45897317  1
  C  C13  1  0.98947941  0.98581626  0.20848680  1
  C  C14  1  0.00740432  0.02267839  0.04114507  1
  C  C15  1  0.01758770  0.98449512  0.29173132  1
  C  C16  1  0.97062738  0.94637839  0.96102139  1
  C  C17  1  0.96883684  0.01465899  0.70916731  1
  C  C18  1  0.99344668  0.99200610  0.54163249  1
  C  C19  1  0.01291386  0.96593509  0.78573615  1
  C  C20  1  0.02344588  0.47184135  0.46324787  1
  C  C21  1  0.01136079  0.48516672  0.04100671  1
  C  C22  1  0.97973259  0.45592855  0.28506383  1
  C  C23  1  0.98238248  0.51701525  0.95905645  1
  C  C24  1  0.00299898  0.49902694  0.70872004  1
  C  C25  1  0.98249883  0.52181105  0.54005448  1
  C  C26  1  0.00475983  0.49504443  0.79341368  1
  C  C27  1  0.53016865  0.96726649  0.46321376  1
  C  C28  1  0.50101469  0.00092840  0.04166535  1
  C  C29  1  0.54503801  0.02458346  0.28518182  1
  C  C30  1  0.50512947  0.99691893  0.95668958  1
  C  C31  1  0.50869555  0.99711203  0.70985482  1
  C  C32  1  0.48559975  0.01532872  0.53952132  1
  C  C33  1  0.49282007  0.51269891  0.46015223  1
  C  C34  1  0.50599973  0.50637038  0.20710785  1
  C  C35  1  0.47417970  0.48910195  0.04082070  1
  C  C36  1  0.50375428  0.49492610  0.29129243  1
  C  C37  1  0.55457302  0.53482137  0.96090481  1
  C  C38  1  0.48581440  0.53424064  0.70957771  1
  C  C39  1  0.53382854  0.49123536  0.78637541  1
  Ti  Ti40  1  0.16363573  0.34083880  0.88431841  1
  Ti  Ti41  1  0.15645641  0.84117786  0.38112253  1
  Ta  Ta42  1  0.33025477  0.17364239  0.62740424  1
  Ta  Ta43  1  0.66084595  0.33213420  0.37826471  1
  N  N44  1  0.99446805  0.50915865  0.20576211  1
  N  N45  1  0.49060261  0.00122806  0.20575523  1
  N  N46  1  0.50531951  0.99916421  0.79356035  1
  N  N47  1  0.49241732  0.50953177  0.54282009  1
