# generated using pymatgen
data_TiVW6C7N
_symmetry_space_group_name_H-M   'P 1'
_cell_length_a   6.15419648
_cell_length_b   6.19654506
_cell_length_c   8.72100064
_cell_angle_alpha   90.22206342
_cell_angle_beta   90.19636380
_cell_angle_gamma   89.78490476
_symmetry_Int_Tables_number   1
_chemical_formula_structural   TiVW6C7N
_chemical_formula_sum   'Ti2 V2 W12 C14 N2'
_cell_volume   332.56645163
_cell_formula_units_Z   2
loop_
 _symmetry_equiv_pos_site_id
 _symmetry_equiv_pos_as_xyz
  1  'x, y, z'
loop_
 _atom_site_type_symbol
 _atom_site_label
 _atom_site_symmetry_multiplicity
 _atom_site_fract_x
 _atom_site_fract_y
 _atom_site_fract_z
 _atom_site_occupancy
  V  V0  1  0.76601620  0.26651349  0.23569533  1
  V  V1  1  0.99254874  0.46723936  0.99194857  1
  C  C2  1  0.22333970  0.75673380  0.50189556  1
  C  C3  1  0.28170817  0.23826990  0.50327711  1
  C  C4  1  0.50832939  0.49279849  0.24763067  1
  C  C5  1  0.50870520  0.01454892  0.25183166  1
  C  C6  1  0.75632766  0.73652778  0.00404228  1
  C  C7  1  0.74602488  0.25608732  0.99915225  1
  C  C8  1  0.99694612  0.50762557  0.24765704  1
  C  C9  1  0.99665424  0.00283853  0.24932260  1
  C  C10  1  0.24724569  0.75046071  0.00091250  1
  C  C11  1  0.24985623  0.24593520  0.00234355  1
  C  C12  1  0.49953669  0.50272469  0.74950445  1
  C  C13  1  0.49837997  0.99797832  0.74816601  1
  C  C14  1  0.99163636  0.49885377  0.75458085  1
  C  C15  1  0.99327630  0.00202972  0.74416561  1
  N  N16  1  0.76343072  0.74130972  0.50833147  1
  N  N17  1  0.73974880  0.25312004  0.49963030  1
  Ti  Ti18  1  0.74039256  0.25521351  0.74978183  1
  Ti  Ti19  1  0.49554301  0.49444468  0.99837370  1
  W  W20  1  0.75768809  0.76361411  0.77416374  1
  W  W21  1  0.23732454  0.24228282  0.75129070  1
  W  W22  1  0.24977940  0.74382895  0.75815361  1
  W  W23  1  0.49627997  0.95747627  0.48249627  1
  W  W24  1  0.48397206  0.51154770  0.49918400  1
  W  W25  1  0.74246594  0.73772544  0.23495645  1
  W  W26  1  0.01158311  0.03846882  0.48625278  1
  W  W27  1  0.01737706  0.48308633  0.50910024  1
  W  W28  1  0.24521739  0.27815315  0.25587208  1
  W  W29  1  0.25735642  0.74740676  0.24532910  1
  W  W30  1  0.51506755  0.00667351  0.01025221  1
  W  W31  1  0.99024188  0.00848262  0.00470550  1
