# generated using pymatgen
data_TiBW6C7N
_symmetry_space_group_name_H-M   'P 1'
_cell_length_a   6.13158832
_cell_length_b   6.19449137
_cell_length_c   8.68673419
_cell_angle_alpha   90.69953088
_cell_angle_beta   89.65128250
_cell_angle_gamma   90.12861236
_symmetry_Int_Tables_number   1
_chemical_formula_structural   TiBW6C7N
_chemical_formula_sum   'Ti2 B2 W12 C14 N2'
_cell_volume   329.90867584
_cell_formula_units_Z   2
loop_
 _symmetry_equiv_pos_site_id
 _symmetry_equiv_pos_as_xyz
  1  'x, y, z'
loop_
 _atom_site_type_symbol
 _atom_site_label
 _atom_site_symmetry_multiplicity
 _atom_site_fract_x
 _atom_site_fract_y
 _atom_site_fract_z
 _atom_site_occupancy
  B  B0  1  0.62812253  0.26242412  0.17875196  1
  B  B1  1  0.98458796  0.35604913  0.07832816  1
  C  C2  1  0.23397778  0.75416650  0.50154033  1
  C  C3  1  0.28269420  0.24091622  0.50789402  1
  C  C4  1  0.53612682  0.47849802  0.24983198  1
  C  C5  1  0.55863551  0.05116425  0.25434895  1
  C  C6  1  0.74789226  0.75054694  0.00033190  1
  C  C7  1  0.76081065  0.25829906  0.02086811  1
  C  C8  1  0.00803280  0.50177376  0.22953579  1
  C  C9  1  0.01150461  0.98955063  0.25354634  1
  C  C10  1  0.25225001  0.74376993  0.00557040  1
  C  C11  1  0.21577753  0.27342788  0.00099081  1
  C  C12  1  0.50080072  0.50994534  0.75004511  1
  C  C13  1  0.49895245  0.00367015  0.74561628  1
  C  C14  1  0.99291313  0.50834408  0.74299006  1
  C  C15  1  0.99455868  0.01182003  0.74803459  1
  N  N16  1  0.76783736  0.73974835  0.49616618  1
  N  N17  1  0.75115102  0.25300390  0.50863952  1
  Ti  Ti18  1  0.74930621  0.25564288  0.75130059  1
  Ti  Ti19  1  0.49568564  0.51537723  0.99770669  1
  W  W20  1  0.75647782  0.74845526  0.77067127  1
  W  W21  1  0.23592095  0.28802213  0.75202156  1
  W  W22  1  0.24129007  0.76341604  0.76831734  1
  W  W23  1  0.50519057  0.96340468  0.48305255  1
  W  W24  1  0.48623998  0.50678761  0.49086663  1
  W  W25  1  0.74570993  0.76029945  0.23217392  1
  W  W26  1  0.01852391  0.03661341  0.49597039  1
  W  W27  1  0.02113263  0.48936691  0.48118790  1
  W  W28  1  0.24389084  0.24834387  0.26062210  1
  W  W29  1  0.27419083  0.74391403  0.24791433  1
  W  W30  1  0.49022500  0.00956325  0.99599341  1
  W  W31  1  0.00958957  0.98367497  0.99917081  1
