# generated using pymatgen
data_TiAlW6C7N
_symmetry_space_group_name_H-M   'P 1'
_cell_length_a   6.16614805
_cell_length_b   6.20829710
_cell_length_c   8.68108275
_cell_angle_alpha   89.58433625
_cell_angle_beta   90.54267977
_cell_angle_gamma   90.00119699
_symmetry_Int_Tables_number   1
_chemical_formula_structural   TiAlW6C7N
_chemical_formula_sum   'Ti2 Al2 W12 C14 N2'
_cell_volume   332.29929995
_cell_formula_units_Z   2
loop_
 _symmetry_equiv_pos_site_id
 _symmetry_equiv_pos_as_xyz
  1  'x, y, z'
loop_
 _atom_site_type_symbol
 _atom_site_label
 _atom_site_symmetry_multiplicity
 _atom_site_fract_x
 _atom_site_fract_y
 _atom_site_fract_z
 _atom_site_occupancy
  Al  Al0  1  0.75056250  0.26595158  0.24843264  1
  Al  Al1  1  0.99849645  0.48000694  0.00422194  1
  C  C2  1  0.22845049  0.75636003  0.50243564  1
  C  C3  1  0.28415826  0.23508675  0.50305009  1
  C  C4  1  0.50326940  0.50028240  0.25092961  1
  C  C5  1  0.51010804  0.01101214  0.24926666  1
  C  C6  1  0.75534966  0.73028706  0.00048926  1
  C  C7  1  0.75071509  0.25308192  0.00333820  1
  C  C8  1  -0.00004998  0.49707570  0.24714483  1
  C  C9  1  0.98996586  0.00808763  0.25463244  1
  C  C10  1  0.24268511  0.74308701  0.00274208  1
  C  C11  1  0.24630091  0.24337459  0.99977719  1
  C  C12  1  0.50026616  0.50307831  0.75145674  1
  C  C13  1  0.49694369  0.00749909  0.74467038  1
  C  C14  1  0.98966547  0.50612516  0.75671069  1
  C  C15  1  0.99457163  0.00452079  0.74988293  1
  N  N16  1  0.76981324  0.73839628  0.49759172  1
  N  N17  1  0.74515783  0.25728421  0.48406770  1
  Ti  Ti18  1  0.74408553  0.25263884  0.74535901  1
  Ti  Ti19  1  0.50061284  0.48611921  0.00506939  1
  W  W20  1  0.73889978  0.74392163  0.76753592  1
  W  W21  1  0.24469569  0.28164324  0.74462540  1
  W  W22  1  0.25139721  0.75305296  0.76665059  1
  W  W23  1  0.49810092  0.95486319  0.49480120  1
  W  W24  1  0.48299869  0.50903857  0.49314056  1
  W  W25  1  0.75275744  0.76580050  0.23256302  1
  W  W26  1  0.01254786  0.03754198  0.51094828  1
  W  W27  1  0.02547662  0.48796098  0.50089988  1
  W  W28  1  0.24842800  0.23455700  0.25425353  1
  W  W29  1  0.24895575  0.75505325  0.24146500  1
  W  W30  1  0.51360820  0.99553719  0.99686195  1
  W  W31  1  0.98100565  0.00167389  0.99498555  1
