# generated using pymatgen
data_TiOsW6(C7N)2
_symmetry_space_group_name_H-M   'P 1'
_cell_length_a   5.93449986
_cell_length_b   5.89209541
_cell_length_c   16.14289911
_cell_angle_alpha   89.83139665
_cell_angle_beta   90.07416429
_cell_angle_gamma   120.48675961
_symmetry_Int_Tables_number   1
_chemical_formula_structural   TiOsW6(C7N)2
_chemical_formula_sum   'Ti2 Os2 W12 C28 N4'
_cell_volume   486.42179412
_cell_formula_units_Z   2
loop_
 _symmetry_equiv_pos_site_id
 _symmetry_equiv_pos_as_xyz
  1  'x, y, z'
loop_
 _atom_site_type_symbol
 _atom_site_label
 _atom_site_symmetry_multiplicity
 _atom_site_fract_x
 _atom_site_fract_y
 _atom_site_fract_z
 _atom_site_occupancy
  Ti  Ti0  1  0.16523728  0.33192605  0.37251321  1
  Ti  Ti1  1  0.33447987  0.66876936  0.63120281  1
  W  W2  1  0.33320876  0.16550905  0.12422487  1
  W  W3  1  0.16776373  0.33743092  0.87686612  1
  W  W4  1  0.32995338  0.15994844  0.62556370  1
  W  W5  1  0.16526079  0.83420217  0.37212624  1
  W  W6  1  0.33591360  0.66707633  0.12268361  1
  W  W7  1  0.16686086  0.83792947  0.87648635  1
  W  W8  1  0.66746387  0.33577953  0.37735206  1
  W  W9  1  0.83778013  0.16688641  0.12335768  1
  W  W10  1  0.66905779  0.34159288  0.87340322  1
  W  W11  1  0.82949979  0.16010869  0.62634056  1
  W  W12  1  0.66555755  0.83447308  0.37262010  1
  W  W13  1  0.66910234  0.83722570  0.87560663  1
  C  C14  1  0.98635400  0.98605386  0.45864141  1
  C  C15  1  0.01099585  0.99113286  0.20785167  1
  C  C16  1  0.00288905  0.00346733  0.04052228  1
  C  C17  1  0.98970496  0.99981567  0.29095264  1
  C  C18  1  0.99693856  0.98794322  0.70859020  1
  C  C19  1  0.99456973  0.98587302  0.54231832  1
  C  C20  1  0.00166470  0.00541984  0.79364005  1
  C  C21  1  0.02296054  0.54744349  0.46152474  1
  C  C22  1  0.01432468  0.50867163  0.20785856  1
  C  C23  1  0.99579094  0.49204069  0.04015536  1
  C  C24  1  0.97508763  0.49889518  0.29056146  1
  C  C25  1  0.95494210  0.46750123  0.71118984  1
  C  C26  1  0.96419043  0.46167331  0.53842943  1
  C  C27  1  0.01757564  0.51646717  0.79239632  1
  C  C28  1  0.48756794  0.99112501  0.45874740  1
  C  C29  1  0.49898216  0.98449310  0.20791832  1
  C  C30  1  0.51111284  0.00874860  0.03904208  1
  C  C31  1  0.50995410  0.03098750  0.29043467  1
  C  C32  1  0.50405893  0.00905096  0.71091644  1
  C  C33  1  0.49917506  0.99209093  0.54256017  1
  C  C34  1  0.51870061  0.54356153  0.46112750  1
  C  C35  1  0.49832109  0.49656993  0.20787765  1
  C  C36  1  0.50778418  0.48884548  0.04201843  1
  C  C37  1  0.52193704  0.50635105  0.29100091  1
  C  C38  1  0.50237767  0.51138699  0.95798046  1
  C  C39  1  0.51300096  0.46602597  0.71102415  1
  C  C40  1  0.50109661  0.46318483  0.53830359  1
  C  C41  1  0.49117150  0.51603737  0.79160209  1
  N  N42  1  0.99967182  0.00004870  0.95629412  1
  N  N43  1  0.99510448  0.50548581  0.95657004  1
  N  N44  1  0.50547395  0.01382932  0.95544144  1
  N  N45  1  0.50152640  0.00984490  0.79519331  1
  Os  Os46  1  0.83753755  0.66913535  0.12401369  1
  Os  Os47  1  0.83031658  0.66194011  0.62695413  1
