# generated using pymatgen
data_TiCrW6C7N
_symmetry_space_group_name_H-M   'P 1'
_cell_length_a   6.15073668
_cell_length_b   6.15798166
_cell_length_c   8.74013642
_cell_angle_alpha   89.92300466
_cell_angle_beta   89.51977520
_cell_angle_gamma   89.82708488
_symmetry_Int_Tables_number   1
_chemical_formula_structural   TiCrW6C7N
_chemical_formula_sum   'Ti2 Cr2 W12 C14 N2'
_cell_volume   331.02906517
_cell_formula_units_Z   2
loop_
 _symmetry_equiv_pos_site_id
 _symmetry_equiv_pos_as_xyz
  1  'x, y, z'
loop_
 _atom_site_type_symbol
 _atom_site_label
 _atom_site_symmetry_multiplicity
 _atom_site_fract_x
 _atom_site_fract_y
 _atom_site_fract_z
 _atom_site_occupancy
  Cr  Cr0  1  0.74656330  0.22256176  0.21569151  1
  Cr  Cr1  1  0.01337643  0.46533393  0.97406728  1
  C  C2  1  0.23987471  0.75140002  0.50864541  1
  C  C3  1  0.27866763  0.24787042  0.51114242  1
  C  C4  1  0.51693301  0.49424304  0.25197106  1
  C  C5  1  0.49553784  0.00934619  0.24777317  1
  C  C6  1  0.76243605  0.73718731  0.00307866  1
  C  C7  1  0.75433952  0.26374225  0.99690649  1
  C  C8  1  0.97769922  0.49429496  0.24217149  1
  C  C9  1  0.99452354  0.01116177  0.25663761  1
  C  C10  1  0.24508675  0.74942339  0.00694696  1
  C  C11  1  0.25299186  0.24974480  0.01112508  1
  C  C12  1  0.49928618  0.50479651  0.75191259  1
  C  C13  1  0.49452081  -0.00198777  0.75113220  1
  C  C14  1  0.98452604  0.50019858  0.74260548  1
  C  C15  1  0.99459783  0.00265306  0.74841545  1
  N  N16  1  0.75566437  0.74890078  0.50864631  1
  N  N17  1  0.74927202  0.24768880  0.50339556  1
  Ti  Ti18  1  0.74673212  0.25969573  0.75027438  1
  Ti  Ti19  1  0.49707440  0.49679956  0.00529847  1
  W  W20  1  0.74583830  0.75510532  0.77463496  1
  W  W21  1  0.24518680  0.26339467  0.76382735  1
  W  W22  1  0.23261127  0.73286736  0.77062288  1
  W  W23  1  0.49372222  0.97746370  0.47698083  1
  W  W24  1  0.48230581  0.51104629  0.48952996  1
  W  W25  1  0.75906587  0.75291263  0.23075189  1
  W  W26  1  0.03490242  0.02065108  0.50165567  1
  W  W27  1  0.02156926  0.48819363  0.48865582  1
  W  W28  1  0.23813659  0.27701679  0.26012779  1
  W  W29  1  0.23709579  0.74179411  0.25016406  1
  W  W30  1  0.51312058  0.00917550  0.00591254  1
  W  W31  1  -0.00325853  0.01532383  -0.00070133  1
