# generated using pymatgen
data_TiSiW6C7N
_symmetry_space_group_name_H-M   'P 1'
_cell_length_a   6.17011387
_cell_length_b   6.15684660
_cell_length_c   8.65634199
_cell_angle_alpha   90.01483580
_cell_angle_beta   89.94854385
_cell_angle_gamma   90.21330877
_symmetry_Int_Tables_number   1
_chemical_formula_structural   TiSiW6C7N
_chemical_formula_sum   'Ti2 Si2 W12 C14 N2'
_cell_volume   328.83854590
_cell_formula_units_Z   2
loop_
 _symmetry_equiv_pos_site_id
 _symmetry_equiv_pos_as_xyz
  1  'x, y, z'
loop_
 _atom_site_type_symbol
 _atom_site_label
 _atom_site_symmetry_multiplicity
 _atom_site_fract_x
 _atom_site_fract_y
 _atom_site_fract_z
 _atom_site_occupancy
  Si  Si0  1  0.76309469  0.28589061  0.24264654  1
  Si  Si1  1  0.99263571  0.47670442  0.01012702  1
  C  C2  1  0.26805747  0.74943569  0.49636755  1
  C  C3  1  0.21380233  0.25422337  0.49605942  1
  C  C4  1  0.51181253  0.49457273  0.25183706  1
  C  C5  1  0.53342275  0.03144571  0.25291996  1
  C  C6  1  0.75921627  0.73441895  0.99674289  1
  C  C7  1  0.75675556  0.24907894  0.01205673  1
  C  C8  1  -0.00028170  0.50313674  0.24047213  1
  C  C9  1  0.98879591  0.01592695  0.24901840  1
  C  C10  1  0.23474595  0.72308331  0.99958141  1
  C  C11  1  0.23832584  0.25686407  0.99973432  1
  C  C12  1  0.50683174  0.49734658  0.75399818  1
  C  C13  1  0.50070111  0.99577704  0.75384098  1
  C  C14  1  -0.00065428  0.49067627  0.77992439  1
  C  C15  1  0.99888422  -0.00040131  0.74709464  1
  N  N16  1  0.72304804  0.75884344  0.49735429  1
  N  N17  1  0.75940454  0.26141236  0.46681632  1
  Ti  Ti18  1  0.75133781  0.24491209  0.75354599  1
  Ti  Ti19  1  0.49422597  0.49984316  0.99790946  1
  W  W20  1  0.76162224  0.73108125  0.74916311  1
  W  W21  1  0.25340128  0.26082323  0.74430443  1
  W  W22  1  0.24277887  0.73760072  0.74774104  1
  W  W23  1  0.48860372  0.03275378  0.50711338  1
  W  W24  1  0.48243889  0.47616054  0.50667504  1
  W  W25  1  0.73906901  0.76983379  0.23606292  1
  W  W26  1  0.00666501  0.96965274  0.49196649  1
  W  W27  1  0.99552069  0.52233505  0.51756532  1
  W  W28  1  0.26348868  0.22896758  0.24998191  1
  W  W29  1  0.27025728  0.76634797  0.24347711  1
  W  W30  1  0.49010997  0.99527429  0.00397040  1
  W  W31  1  0.01188191  0.98597794  0.00393114  1
