# generated using pymatgen
data_Ti8C5
_symmetry_space_group_name_H-M   'P 1'
_cell_length_a   10.14832980
_cell_length_b   10.98591389
_cell_length_c   13.30933916
_cell_angle_alpha   108.31967872
_cell_angle_beta   110.33394131
_cell_angle_gamma   94.76336473
_symmetry_Int_Tables_number   1
_chemical_formula_structural   Ti8C5
_chemical_formula_sum   'Ti64 C40'
_cell_volume   1289.67698459
_cell_formula_units_Z   8
loop_
 _symmetry_equiv_pos_site_id
 _symmetry_equiv_pos_as_xyz
  1  'x, y, z'
loop_
 _atom_site_type_symbol
 _atom_site_label
 _atom_site_symmetry_multiplicity
 _atom_site_fract_x
 _atom_site_fract_y
 _atom_site_fract_z
 _atom_site_occupancy
  Ti  Ti0  1  0.63957897  0.40588725  0.82536177  1
  Ti  Ti1  1  0.56278898  0.12706028  0.80871446  1
  Ti  Ti2  1  0.48714232  0.83532721  0.79864256  1
  Ti  Ti3  1  0.40430883  0.56157130  0.77938162  1
  Ti  Ti4  1  0.32154878  0.27982480  0.76161830  1
  Ti  Ti5  1  0.25202873  0.01072125  0.75743253  1
  Ti  Ti6  1  0.16926894  0.71844708  0.73108236  1
  Ti  Ti7  1  0.10084784  0.43843100  0.72033514  1
  Ti  Ti8  1  0.02414585  0.15798283  0.71143924  1
  Ti  Ti9  1  0.94229391  0.87412892  0.69336682  1
  Ti  Ti10  1  0.86129121  0.60115090  0.67254837  1
  Ti  Ti11  1  0.77689625  0.31652361  0.65337431  1
  Ti  Ti12  1  0.70716904  0.04264082  0.64447044  1
  Ti  Ti13  1  0.61812567  0.74669535  0.62784528  1
  Ti  Ti14  1  0.54241464  0.46450929  0.61159282  1
  Ti  Ti15  1  0.46893822  0.18974216  0.59574091  1
  Ti  Ti16  1  0.38830727  0.90851371  0.57095248  1
  Ti  Ti17  1  0.31171186  0.62337789  0.56277561  1
  Ti  Ti18  1  0.22817814  0.34150967  0.55082501  1
  Ti  Ti19  1  0.16209939  0.06387534  0.52934715  1
  Ti  Ti20  1  0.07646174  0.77272500  0.50986233  1
  Ti  Ti21  1  0.00231607  0.50305678  0.49757793  1
  Ti  Ti22  1  0.92926305  0.21479465  0.48629207  1
  Ti  Ti23  1  0.84020226  0.94017197  0.46315452  1
  Ti  Ti24  1  0.76889730  0.64947494  0.44998132  1
  Ti  Ti25  1  0.68626693  0.37528327  0.43863189  1
  Ti  Ti26  1  0.59734392  0.09083786  0.41952248  1
  Ti  Ti27  1  0.52564325  0.81162926  0.40189112  1
  Ti  Ti28  1  0.45168646  0.54032984  0.38843939  1
  Ti  Ti29  1  0.37609035  0.24392959  0.37991761  1
  Ti  Ti30  1  0.30177725  0.96871043  0.36328486  1
  Ti  Ti31  1  0.22465275  0.68834573  0.34981084  1
  Ti  Ti32  1  0.13290647  0.41187380  0.32686559  1
  Ti  Ti33  1  0.05583949  0.12887019  0.31951387  1
  Ti  Ti34  1  0.98469790  0.84923294  0.30155944  1
  Ti  Ti35  1  0.90006583  0.55087058  0.27781218  1
  Ti  Ti36  1  0.83743369  0.28433644  0.26948847  1
  Ti  Ti37  1  0.75010820  0.99118902  0.24481923  1
  Ti  Ti38  1  0.66264330  0.71597053  0.22787679  1
  Ti  Ti39  1  0.59711212  0.44286557  0.22116767  1
  Ti  Ti40  1  0.50854064  0.15465991  0.19934254  1
  Ti  Ti41  1  0.43804444  0.87812506  0.18826380  1
  Ti  Ti42  1  0.35640029  0.60059536  0.17688289  1
  Ti  Ti43  1  0.29002043  0.31215773  0.15797359  1
  Ti  Ti44  1  0.20271655  0.02633427  0.13848264  1
  Ti  Ti45  1  0.13065251  0.74699038  0.11796607  1
  Ti  Ti46  1  0.05108780  0.46189997  0.10847835  1
  Ti  Ti47  1  0.97056938  0.18182291  0.09989768  1
  Ti  Ti48  1  0.88430569  0.90507758  0.07333788  1
  Ti  Ti49  1  0.80406226  0.62496588  0.05587286  1
  Ti  Ti50  1  0.74540964  0.35130715  0.04864309  1
  Ti  Ti51  1  0.65860266  0.05884440  0.03380657  1
  Ti  Ti52  1  0.57792938  0.78281294  0.01471415  1
  Ti  Ti53  1  0.50289275  0.50928713  0.99744184  1
  Ti  Ti54  1  0.42529806  0.22578210  0.99158216  1
  Ti  Ti55  1  0.33788335  0.92494611  0.96557476  1
  Ti  Ti56  1  0.27644641  0.65701299  0.95936605  1
  Ti  Ti57  1  0.20080773  0.37804701  0.93932039  1
  Ti  Ti58  1  0.10484433  0.09255374  0.91717520  1
  Ti  Ti59  1  0.02968182  0.82079914  0.91040972  1
  Ti  Ti60  1  0.95662005  0.53276257  0.90125116  1
  Ti  Ti61  1  0.86868883  0.24833799  0.86853711  1
  Ti  Ti62  1  0.80739404  0.96694146  0.85919383  1
  Ti  Ti63  1  0.71843318  0.69577785  0.84608278  1
  C  C64  1  0.68499084  0.88059849  0.93445430  1
  C  C65  1  0.61073371  0.59314970  0.92071136  1
  C  C66  1  0.37331150  0.75223681  0.87250521  1
  C  C67  1  0.29495932  0.46847626  0.85941453  1
  C  C68  1  0.22703452  0.19125205  0.85269568  1
  C  C69  1  0.14361465  0.90872648  0.82822674  1
  C  C70  1  0.90617709  0.06411401  0.77940774  1
  C  C71  1  0.82709438  0.77974157  0.76222152  1
  C  C72  1  0.67457562  0.22175125  0.73519984  1
  C  C73  1  0.51518495  0.65570075  0.70124259  1
  C  C74  1  0.43708187  0.37471107  0.68715857  1
  C  C75  1  0.36252130  0.08923274  0.67682652  1
  C  C76  1  0.19834068  0.53092861  0.64096416  1
  C  C77  1  0.11885318  0.24911244  0.62663907  1
  C  C78  1  0.96496871  0.69039359  0.59215756  1
  C  C79  1  0.57944946  0.28611947  0.51348429  1
  C  C80  1  0.50341415  0.99984334  0.50135672  1
  C  C81  1  0.42458415  0.71928490  0.48687176  1
  C  C82  1  0.26258890  0.15587080  0.45010209  1
  C  C83  1  0.18357604  0.87366045  0.43847025  1
  C  C84  1  0.10685670  0.59346923  0.41978622  1
  C  C85  1  0.02971488  0.31160247  0.40709727  1
  C  C86  1  0.95079119  0.03045917  0.39280174  1
  C  C87  1  0.79134987  0.46336049  0.35787993  1
  C  C88  1  0.64527157  0.91014940  0.33284836  1
  C  C89  1  0.56512499  0.62329696  0.31471919  1
  C  C90  1  0.40248181  0.06831649  0.27932723  1
  C  C91  1  0.32513155  0.78122190  0.26528708  1
  C  C92  1  0.25462603  0.49051159  0.25023277  1
  C  C93  1  0.93763323  0.37130492  0.18491027  1
  C  C94  1  0.85733349  0.09534859  0.17215104  1
  C  C95  1  0.78509001  0.81190600  0.15828793  1
  C  C96  1  0.69845993  0.52415566  0.13702570  1
  C  C97  1  0.54459801  0.97734233  0.10763873  1
  C  C98  1  0.46867899  0.68563256  0.09355687  1
  C  C99  1  0.23330266  0.84270821  0.04528388  1
  C  C100  1  0.15605226  0.55904753  0.02974526  1
  C  C101  1  0.00417786  0.00444655  0.00328541  1
  C  C102  1  0.92481413  0.71607347  0.98373348  1
  C  C103  1  0.84754245  0.43551812  0.96844584  1
