# generated using pymatgen
data_HfTaTiNbVC5
_symmetry_space_group_name_H-M   'P 1'
_cell_length_a   7.01543200
_cell_length_b   4.44946700
_cell_length_c   7.01666900
_cell_angle_alpha   90.00000000
_cell_angle_beta   90.00000000
_cell_angle_gamma   90.00000000
_symmetry_Int_Tables_number   1
_chemical_formula_structural   HfTaTiNbVC5
_chemical_formula_sum   'Hf2 Ta2 Ti2 Nb2 V2 C10'
_cell_volume   219.02485394
_cell_formula_units_Z   2
loop_
 _symmetry_equiv_pos_site_id
 _symmetry_equiv_pos_as_xyz
  1  'x, y, z'
loop_
 _atom_site_type_symbol
 _atom_site_label
 _atom_site_symmetry_multiplicity
 _atom_site_fract_x
 _atom_site_fract_y
 _atom_site_fract_z
 _atom_site_occupancy
  C  C0  1  0.69726662  0.00000000  0.90160291  1
  C  C1  1  0.49134378  0.00000000  0.50680645  1
  C  C2  1  0.60258095  0.50000000  0.19703693  1
  C  C3  1  0.90604789  0.00000000  0.29581099  1
  C  C4  1  0.99840976  0.50000000  0.99763800  1
  C  C5  1  0.29751895  0.00000000  0.09647385  1
  C  C6  1  0.39389205  0.50000000  0.80354570  1
  C  C7  1  0.80825335  0.50000000  0.60043927  1
  C  C8  1  0.11310704  0.00000000  0.70042077  1
  C  C9  1  0.19240397  0.50000000  0.40475070  1
  Hf  Hf10  1  0.49768999  0.50000000  0.50214687  1
  Hf  Hf11  1  0.80871592  0.00000000  0.60094158  1
  V  V12  1  0.39248066  0.00000000  0.78924233  1
  V  V13  1  0.10874996  0.50000000  0.69686624  1
  Nb  Nb14  1  0.29510366  0.50000000  0.10212422  1
  Nb  Nb15  1  0.59367467  0.00000000  0.19867998  1
  Ta  Ta16  1  0.69852544  0.50000000  0.90020682  1
  Ta  Ta17  1  0.00706112  0.00000000  0.00002182  1
  Ti  Ti18  1  0.19667001  0.00000000  0.40391487  1
  Ti  Ti19  1  0.90050422  0.50000000  0.30132968  1
