# generated using pymatgen
data_HfTaTiNbVC5
_symmetry_space_group_name_H-M   'P 1'
_cell_length_a   7.03352300
_cell_length_b   4.46755800
_cell_length_c   7.03476000
_cell_angle_alpha   90.00000000
_cell_angle_beta   90.00000000
_cell_angle_gamma   90.00000000
_symmetry_Int_Tables_number   1
_chemical_formula_structural   HfTaTiNbVC5
_chemical_formula_sum   'Hf2 Ta2 Ti2 Nb2 V2 C10'
_cell_volume   221.05095570
_cell_formula_units_Z   2
loop_
 _symmetry_equiv_pos_site_id
 _symmetry_equiv_pos_as_xyz
  1  'x, y, z'
loop_
 _atom_site_type_symbol
 _atom_site_label
 _atom_site_symmetry_multiplicity
 _atom_site_fract_x
 _atom_site_fract_y
 _atom_site_fract_z
 _atom_site_occupancy
  C  C0  1  0.69747442  0.00000000  0.90172755  1
  C  C1  1  0.49130945  0.00000000  0.50673457  1
  C  C2  1  0.60245216  0.50000000  0.19684687  1
  C  C3  1  0.90602607  0.00000000  0.29585849  1
  C  C4  1  0.99839873  0.50000000  0.99780311  1
  C  C5  1  0.29747510  0.00000000  0.09643248  1
  C  C6  1  0.39404225  0.50000000  0.80349351  1
  C  C7  1  0.80807628  0.50000000  0.60056672  1
  C  C8  1  0.11305703  0.00000000  0.70057210  1
  C  C9  1  0.19249531  0.50000000  0.40470086  1
  Hf  Hf10  1  0.49770100  0.50000000  0.50203740  1
  Hf  Hf11  1  0.80872361  0.00000000  0.60107798  1
  V  V12  1  0.39216708  0.00000000  0.78876835  1
  V  V13  1  0.10890920  0.50000000  0.69671510  1
  Nb  Nb14  1  0.29501362  0.50000000  0.10197595  1
  Nb  Nb15  1  0.59351261  0.00000000  0.19842213  1
  Ta  Ta16  1  0.69874402  0.50000000  0.90031020  1
  Ta  Ta17  1  0.00722253  0.00000000  0.00036661  1
  Ti  Ti18  1  0.19666204  0.00000000  0.40402776  1
  Ti  Ti19  1  0.90053753  0.50000000  0.30156226  1
