# generated using pymatgen
data_Ti3NiC3
_symmetry_space_group_name_H-M   'P 1'
_cell_length_a   6.71669794
_cell_length_b   6.71669794
_cell_length_c   10.47314901
_cell_angle_alpha   130.90897468
_cell_angle_beta   130.90897465
_cell_angle_gamma   26.47588606
_symmetry_Int_Tables_number   1
_chemical_formula_structural   Ti3NiC3
_chemical_formula_sum   'Ti6 Ni2 C6'
_cell_volume   155.85209885
_cell_formula_units_Z   2
loop_
 _symmetry_equiv_pos_site_id
 _symmetry_equiv_pos_as_xyz
  1  'x, y, z'
loop_
 _atom_site_type_symbol
 _atom_site_label
 _atom_site_symmetry_multiplicity
 _atom_site_fract_x
 _atom_site_fract_y
 _atom_site_fract_z
 _atom_site_occupancy
  C  C0  1  0.06974486  0.06974486  0.70229416  1
  C  C1  1  0.19657596  0.19657596  0.06569767  1
  C  C2  1  0.30426036  0.30426036  0.42871896  1
  C  C3  1  0.42183550  0.42183550  0.79638365  1
  C  C4  1  0.96582571  0.96582571  0.34605013  1
  C  C5  1  0.51308852  0.51308852  0.11061756  1
  Ni  Ni6  1  0.00600066  0.00600066  0.96826457  1
  Ni  Ni7  1  0.10843610  0.10843610  0.31065596  1
  Ti  Ti8  1  0.28793582  0.28793582  0.83565546  1
  Ti  Ti9  1  0.86402815  0.86402815  0.61341387  1
  Ti  Ti10  1  0.39577162  0.39577162  0.17610263  1
  Ti  Ti11  1  0.50721400  0.50721400  0.52324034  1
  Ti  Ti12  1  0.61974748  0.61974748  0.88050647  1
  Ti  Ti13  1  0.73953523  0.73953523  0.24239858  1
