# generated using pymatgen
data_HfTaTiNbVC5
_symmetry_space_group_name_H-M   'P 1'
_cell_length_a   7.04523900
_cell_length_b   4.47927400
_cell_length_c   7.04647600
_cell_angle_alpha   90.00000000
_cell_angle_beta   90.00000000
_cell_angle_gamma   90.00000000
_symmetry_Int_Tables_number   1
_chemical_formula_structural   HfTaTiNbVC5
_chemical_formula_sum   'Hf2 Ta2 Ti2 Nb2 V2 C10'
_cell_volume   222.36956010
_cell_formula_units_Z   2
loop_
 _symmetry_equiv_pos_site_id
 _symmetry_equiv_pos_as_xyz
  1  'x, y, z'
loop_
 _atom_site_type_symbol
 _atom_site_label
 _atom_site_symmetry_multiplicity
 _atom_site_fract_x
 _atom_site_fract_y
 _atom_site_fract_z
 _atom_site_occupancy
  C  C0  1  0.69771125  0.00000000  0.90182977  1
  C  C1  1  0.49117152  0.00000000  0.50672599  1
  C  C2  1  0.60240136  0.50000000  0.19673283  1
  C  C3  1  0.90596444  0.00000000  0.29586256  1
  C  C4  1  0.99840726  0.50000000  0.99794889  1
  C  C5  1  0.29747652  0.00000000  0.09643027  1
  C  C6  1  0.39407476  0.50000000  0.80346333  1
  C  C7  1  0.80798877  0.50000000  0.60067818  1
  C  C8  1  0.11291754  0.00000000  0.70064657  1
  C  C9  1  0.19255863  0.50000000  0.40464130  1
  Hf  Hf10  1  0.49772739  0.50000000  0.50187927  1
  Hf  Hf11  1  0.80877428  0.00000000  0.60110565  1
  V  V12  1  0.39189383  0.00000000  0.78813375  1
  V  V13  1  0.10904554  0.50000000  0.69647783  1
  Nb  Nb14  1  0.29492375  0.50000000  0.10199262  1
  Nb  Nb15  1  0.59344506  0.00000000  0.19831540  1
  Ta  Ta16  1  0.69892710  0.50000000  0.90049312  1
  Ta  Ta17  1  0.00740343  0.00000000  0.00075839  1
  Ti  Ti18  1  0.19662018  0.00000000  0.40417517  1
  Ti  Ti19  1  0.90056743  0.50000000  0.30170910  1
