# generated using pymatgen
data_HfTaTiNbVC5
_symmetry_space_group_name_H-M   'P 1'
_cell_length_a   7.04723400
_cell_length_b   4.48126900
_cell_length_c   7.04847100
_cell_angle_alpha   90.00000000
_cell_angle_beta   90.00000000
_cell_angle_gamma   90.00000000
_symmetry_Int_Tables_number   1
_chemical_formula_structural   HfTaTiNbVC5
_chemical_formula_sum   'Hf2 Ta2 Ti2 Nb2 V2 C10'
_cell_volume   222.59459972
_cell_formula_units_Z   2
loop_
 _symmetry_equiv_pos_site_id
 _symmetry_equiv_pos_as_xyz
  1  'x, y, z'
loop_
 _atom_site_type_symbol
 _atom_site_label
 _atom_site_symmetry_multiplicity
 _atom_site_fract_x
 _atom_site_fract_y
 _atom_site_fract_z
 _atom_site_occupancy
  C  C0  1  0.69773899  0.00000000  0.90184780  1
  C  C1  1  0.49116837  0.00000000  0.50671860  1
  C  C2  1  0.60239007  0.50000000  0.19671421  1
  C  C3  1  0.90596434  0.00000000  0.29586784  1
  C  C4  1  0.99840638  0.50000000  0.99796966  1
  C  C5  1  0.29746872  0.00000000  0.09642695  1
  C  C6  1  0.39409091  0.50000000  0.80345479  1
  C  C7  1  0.80797484  0.50000000  0.60069147  1
  C  C8  1  0.11291117  0.00000000  0.70066236  1
  C  C9  1  0.19256904  0.50000000  0.40463602  1
  Hf  Hf10  1  0.49773059  0.50000000  0.50186975  1
  Hf  Hf11  1  0.80877327  0.00000000  0.60112363  1
  V  V12  1  0.39185382  0.00000000  0.78807984  1
  V  V13  1  0.10906275  0.50000000  0.69645545  1
  Nb  Nb14  1  0.29491664  0.50000000  0.10197272  1
  Nb  Nb15  1  0.59342464  0.00000000  0.19828505  1
  Ta  Ta16  1  0.69895071  0.50000000  0.90050786  1
  Ta  Ta17  1  0.00742295  0.00000000  0.00080069  1
  Ti  Ti18  1  0.19661278  0.00000000  0.40418426  1
  Ti  Ti19  1  0.90056907  0.50000000  0.30173105  1
