# generated using pymatgen
data_HfTaTiNbVC5
_symmetry_space_group_name_H-M   'P 1'
_cell_length_a   7.04324100
_cell_length_b   4.47727600
_cell_length_c   7.04447800
_cell_angle_alpha   90.00000000
_cell_angle_beta   90.00000000
_cell_angle_gamma   90.00000000
_symmetry_Int_Tables_number   1
_chemical_formula_structural   HfTaTiNbVC5
_chemical_formula_sum   'Hf2 Ta2 Ti2 Nb2 V2 C10'
_cell_volume   222.14433024
_cell_formula_units_Z   2
loop_
 _symmetry_equiv_pos_site_id
 _symmetry_equiv_pos_as_xyz
  1  'x, y, z'
loop_
 _atom_site_type_symbol
 _atom_site_label
 _atom_site_symmetry_multiplicity
 _atom_site_fract_x
 _atom_site_fract_y
 _atom_site_fract_z
 _atom_site_occupancy
  C  C0  1  0.69768100  0.00000000  0.90181592  1
  C  C1  1  0.49117702  0.00000000  0.50673149  1
  C  C2  1  0.60241310  0.50000000  0.19675083  1
  C  C3  1  0.90596255  0.00000000  0.29585977  1
  C  C4  1  0.99840614  0.50000000  0.99793249  1
  C  C5  1  0.29748135  0.00000000  0.09642872  1
  C  C6  1  0.39406211  0.50000000  0.80346867  1
  C  C7  1  0.80800701  0.50000000  0.60066618  1
  C  C8  1  0.11292388  0.00000000  0.70063283  1
  C  C9  1  0.19255140  0.50000000  0.40464678  1
  Hf  Hf10  1  0.49772876  0.50000000  0.50189016  1
  Hf  Hf11  1  0.80877290  0.00000000  0.60108967  1
  V  V12  1  0.39192697  0.00000000  0.78819773  1
  V  V13  1  0.10902953  0.50000000  0.69649181  1
  Nb  Nb14  1  0.29493358  0.50000000  0.10200405  1
  Nb  Nb15  1  0.59346342  0.00000000  0.19834761  1
  Ta  Ta16  1  0.69890589  0.50000000  0.90048019  1
  Ta  Ta17  1  0.00738037  0.00000000  0.00071939  1
  Ti  Ti18  1  0.19662582  0.00000000  0.40415984  1
  Ti  Ti19  1  0.90056725  0.50000000  0.30168587  1
