# generated using pymatgen
data_HfTaTiNbVC5
_symmetry_space_group_name_H-M   'P 1'
_cell_length_a   7.04124300
_cell_length_b   4.47527800
_cell_length_c   7.04248000
_cell_angle_alpha   90.00000000
_cell_angle_beta   90.00000000
_cell_angle_gamma   90.00000000
_symmetry_Int_Tables_number   1
_chemical_formula_structural   HfTaTiNbVC5
_chemical_formula_sum   'Hf2 Ta2 Ti2 Nb2 V2 C10'
_cell_volume   221.91924860
_cell_formula_units_Z   2
loop_
 _symmetry_equiv_pos_site_id
 _symmetry_equiv_pos_as_xyz
  1  'x, y, z'
loop_
 _atom_site_type_symbol
 _atom_site_label
 _atom_site_symmetry_multiplicity
 _atom_site_fract_x
 _atom_site_fract_y
 _atom_site_fract_z
 _atom_site_occupancy
  C  C0  1  0.69765727  0.00000000  0.90179882  1
  C  C1  1  0.49117961  0.00000000  0.50674162  1
  C  C2  1  0.60242198  0.50000000  0.19676922  1
  C  C3  1  0.90596220  0.00000000  0.29585479  1
  C  C4  1  0.99840643  0.50000000  0.99791345  1
  C  C5  1  0.29748798  0.00000000  0.09643454  1
  C  C6  1  0.39404779  0.50000000  0.80347772  1
  C  C7  1  0.80802535  0.50000000  0.60065210  1
  C  C8  1  0.11293066  0.00000000  0.70061701  1
  C  C9  1  0.19254078  0.50000000  0.40465188  1
  Hf  Hf10  1  0.49772754  0.50000000  0.50190002  1
  Hf  Hf11  1  0.80877364  0.00000000  0.60107113  1
  V  V12  1  0.39196527  0.00000000  0.78825160  1
  V  V13  1  0.10901053  0.50000000  0.69651385  1
  Nb  Nb14  1  0.29494062  0.50000000  0.10202552  1
  Nb  Nb15  1  0.59348125  0.00000000  0.19837714  1
  Ta  Ta16  1  0.69888007  0.50000000  0.90046548  1
  Ta  Ta17  1  0.00736014  0.00000000  0.00067564  1
  Ti  Ti18  1  0.19663325  0.00000000  0.40414949  1
  Ti  Ti19  1  0.90056765  0.50000000  0.30165898  1
