# generated using pymatgen
data_HfTaTiNbMoC5
_symmetry_space_group_name_H-M   'P 1'
_cell_length_a   7.05880232
_cell_length_b   4.46423803
_cell_length_c   7.05405233
_cell_angle_alpha   90.00000000
_cell_angle_beta   89.90386007
_cell_angle_gamma   90.00000000
_symmetry_Int_Tables_number   1
_chemical_formula_structural   HfTaTiNbMoC5
_chemical_formula_sum   'Hf2 Ta2 Ti2 Nb2 Mo2 C10'
_cell_volume   222.28820984
_cell_formula_units_Z   2
loop_
 _symmetry_equiv_pos_site_id
 _symmetry_equiv_pos_as_xyz
  1  'x, y, z'
loop_
 _atom_site_type_symbol
 _atom_site_label
 _atom_site_symmetry_multiplicity
 _atom_site_fract_x
 _atom_site_fract_y
 _atom_site_fract_z
 _atom_site_occupancy
  C  C0  1  0.70100086  0.00000000  0.90277519  1
  C  C1  1  0.49334723  0.00000000  0.49861044  1
  C  C2  1  0.60270938  0.50000000  0.19631367  1
  C  C3  1  0.90459533  0.00000000  0.29553778  1
  C  C4  1  0.99695824  0.50000000  0.00240226  1
  C  C5  1  0.29620089  0.00000000  0.10114448  1
  C  C6  1  0.39994054  0.50000000  0.80595457  1
  C  C7  1  0.80461445  0.50000000  0.59916769  1
  C  C8  1  0.10632333  0.00000000  0.69835982  1
  C  C9  1  0.19486535  0.50000000  0.39901607  1
  Hf  Hf10  1  0.49866925  0.50000000  0.50058225  1
  Hf  Hf11  1  0.80575495  0.00000000  0.59868641  1
  Mo  Mo12  1  0.39606201  0.00000000  0.79225870  1
  Mo  Mo13  1  0.10497024  0.50000000  0.69128637  1
  Nb  Nb14  1  0.29196723  0.50000000  0.10548454  1
  Nb  Nb15  1  0.59312115  0.00000000  0.19998642  1
  Ta  Ta16  1  0.70458990  0.50000000  0.90235425  1
  Ta  Ta17  1  0.00496410  0.00000000  0.00468679  1
  Ti  Ti18  1  0.19768430  0.00000000  0.40238368  1
  Ti  Ti19  1  0.90166122  0.50000000  0.30300862  1
