# generated using pymatgen
data_HfTaTiNbVC5
_symmetry_space_group_name_H-M   'P 1'
_cell_length_a   7.06230300
_cell_length_b   4.49633800
_cell_length_c   7.06354000
_cell_angle_alpha   90.00000000
_cell_angle_beta   90.00000000
_cell_angle_gamma   90.00000000
_symmetry_Int_Tables_number   1
_chemical_formula_structural   HfTaTiNbVC5
_chemical_formula_sum   'Hf2 Ta2 Ti2 Nb2 V2 C10'
_cell_volume   224.29919044
_cell_formula_units_Z   2
loop_
 _symmetry_equiv_pos_site_id
 _symmetry_equiv_pos_as_xyz
  1  'x, y, z'
loop_
 _atom_site_type_symbol
 _atom_site_label
 _atom_site_symmetry_multiplicity
 _atom_site_fract_x
 _atom_site_fract_y
 _atom_site_fract_z
 _atom_site_occupancy
  C  C0  1  0.69797505  0.00000000  0.90196815  1
  C  C1  1  0.49112800  0.00000000  0.50665637  1
  C  C2  1  0.60230732  0.50000000  0.19657474  1
  C  C3  1  0.90596967  0.00000000  0.29589837  1
  C  C4  1  0.99840753  0.50000000  0.99812253  1
  C  C5  1  0.29741818  0.00000000  0.09641811  1
  C  C6  1  0.39419746  0.50000000  0.80339507  1
  C  C7  1  0.80785789  0.50000000  0.60078816  1
  C  C8  1  0.11284755  0.00000000  0.70076998  1
  C  C9  1  0.19263291  0.50000000  0.40460688  1
  Hf  Hf10  1  0.49773211  0.50000000  0.50180007  1
  Hf  Hf11  1  0.80877557  0.00000000  0.60125065  1
  V  V12  1  0.39155999  0.00000000  0.78761559  1
  V  V13  1  0.10918798  0.50000000  0.69629254  1
  Nb  Nb14  1  0.29484201  0.50000000  0.10185881  1
  Nb  Nb15  1  0.59328288  0.00000000  0.19803879  1
  Ta  Ta16  1  0.69914044  0.50000000  0.90062895  1
  Ta  Ta17  1  0.00759053  0.00000000  0.00111186  1
  Ti  Ti18  1  0.19657062  0.00000000  0.40428234  1
  Ti  Ti19  1  0.90057636  0.50000000  0.30192205  1
