# generated using pymatgen
data_HfTaTiNbVC5
_symmetry_space_group_name_H-M   'P 1'
_cell_length_a   7.06031600
_cell_length_b   4.49435100
_cell_length_c   7.06155300
_cell_angle_alpha   90.00000000
_cell_angle_beta   90.00000000
_cell_angle_gamma   90.00000000
_symmetry_Int_Tables_number   1
_chemical_formula_structural   HfTaTiNbVC5
_chemical_formula_sum   'Hf2 Ta2 Ti2 Nb2 V2 C10'
_cell_volume   224.07393930
_cell_formula_units_Z   2
loop_
 _symmetry_equiv_pos_site_id
 _symmetry_equiv_pos_as_xyz
  1  'x, y, z'
loop_
 _atom_site_type_symbol
 _atom_site_label
 _atom_site_symmetry_multiplicity
 _atom_site_fract_x
 _atom_site_fract_y
 _atom_site_fract_z
 _atom_site_occupancy
  C  C0  1  0.69794224  0.00000000  0.90194976  1
  C  C1  1  0.49113578  0.00000000  0.50666118  1
  C  C2  1  0.60231699  0.50000000  0.19658957  1
  C  C3  1  0.90596893  0.00000000  0.29589165  1
  C  C4  1  0.99841045  0.50000000  0.99809489  1
  C  C5  1  0.29742437  0.00000000  0.09641805  1
  C  C6  1  0.39418367  0.50000000  0.80340392  1
  C  C7  1  0.80786554  0.50000000  0.60078000  1
  C  C8  1  0.11287402  0.00000000  0.70075548  1
  C  C9  1  0.19262733  0.50000000  0.40461076  1
  Hf  Hf10  1  0.49772600  0.50000000  0.50182054  1
  Hf  Hf11  1  0.80876800  0.00000000  0.60123173  1
  V  V12  1  0.39159930  0.00000000  0.78768209  1
  V  V13  1  0.10917653  0.50000000  0.69632526  1
  Nb  Nb14  1  0.29485070  0.50000000  0.10186977  1
  Nb  Nb15  1  0.59329674  0.00000000  0.19807688  1
  Ta  Ta16  1  0.69911141  0.50000000  0.90061315  1
  Ta  Ta17  1  0.00757413  0.00000000  0.00106876  1
  Ti  Ti18  1  0.19657743  0.00000000  0.40426856  1
  Ti  Ti19  1  0.90057050  0.50000000  0.30188799  1
