# generated using pymatgen
data_HfTaTiNbVC5
_symmetry_space_group_name_H-M   'P 1'
_cell_length_a   7.06457100
_cell_length_b   4.49860600
_cell_length_c   7.06580800
_cell_angle_alpha   90.00000000
_cell_angle_beta   90.00000000
_cell_angle_gamma   90.00000000
_symmetry_Int_Tables_number   1
_chemical_formula_structural   HfTaTiNbVC5
_chemical_formula_sum   'Hf2 Ta2 Ti2 Nb2 V2 C10'
_cell_volume   224.55647614
_cell_formula_units_Z   2
loop_
 _symmetry_equiv_pos_site_id
 _symmetry_equiv_pos_as_xyz
  1  'x, y, z'
loop_
 _atom_site_type_symbol
 _atom_site_label
 _atom_site_symmetry_multiplicity
 _atom_site_fract_x
 _atom_site_fract_y
 _atom_site_fract_z
 _atom_site_occupancy
  C  C0  1  0.69800810  0.00000000  0.90198392  1
  C  C1  1  0.49112050  0.00000000  0.50665381  1
  C  C2  1  0.60229366  0.50000000  0.19654884  1
  C  C3  1  0.90597274  0.00000000  0.29590289  1
  C  C4  1  0.99840906  0.50000000  0.99814141  1
  C  C5  1  0.29740979  0.00000000  0.09641695  1
  C  C6  1  0.39420731  0.50000000  0.80338437  1
  C  C7  1  0.80783762  0.50000000  0.60080574  1
  C  C8  1  0.11285417  0.00000000  0.70078620  1
  C  C9  1  0.19264857  0.50000000  0.40460277  1
  Hf  Hf10  1  0.49773071  0.50000000  0.50179634  1
  Hf  Hf11  1  0.80877075  0.00000000  0.60126916  1
  V  V12  1  0.39151110  0.00000000  0.78753255  1
  V  V13  1  0.10921166  0.50000000  0.69627194  1
  Nb  Nb14  1  0.29482683  0.50000000  0.10184110  1
  Nb  Nb15  1  0.59325501  0.00000000  0.19800257  1
  Ta  Ta16  1  0.69916840  0.50000000  0.90065001  1
  Ta  Ta17  1  0.00762397  0.00000000  0.00116111  1
  Ti  Ti18  1  0.19656321  0.00000000  0.40430431  1
  Ti  Ti19  1  0.90057686  0.50000000  0.30194402  1
