# generated using pymatgen
data_HfTaTiNbWC5
_symmetry_space_group_name_H-M   'P 1'
_cell_length_a   7.05358826
_cell_length_b   4.46397436
_cell_length_c   7.05609017
_cell_angle_alpha   90.00000000
_cell_angle_beta   90.04479286
_cell_angle_gamma   90.00000000
_symmetry_Int_Tables_number   1
_chemical_formula_structural   HfTaTiNbWC5
_chemical_formula_sum   'Hf2 Ta2 Ti2 Nb2 W2 C10'
_cell_volume   222.17530522
_cell_formula_units_Z   2
loop_
 _symmetry_equiv_pos_site_id
 _symmetry_equiv_pos_as_xyz
  1  'x, y, z'
loop_
 _atom_site_type_symbol
 _atom_site_label
 _atom_site_symmetry_multiplicity
 _atom_site_fract_x
 _atom_site_fract_y
 _atom_site_fract_z
 _atom_site_occupancy
  C  C0  1  0.70274224  0.00000000  0.90788541  1
  C  C1  1  0.49727640  0.00000000  0.49858797  1
  C  C2  1  0.60076491  0.50000000  0.19801204  1
  C  C3  1  0.89521372  0.00000000  0.29222570  1
  C  C4  1  0.00163791  0.50000000  0.00818944  1
  C  C5  1  0.29879864  0.00000000  0.09703859  1
  C  C6  1  0.40483149  0.50000000  0.80412992  1
  C  C7  1  0.79609046  0.50000000  0.59959671  1
  C  C8  1  0.10366563  0.00000000  0.70264410  1
  C  C9  1  0.19739008  0.50000000  0.39271504  1
  Hf  Hf10  1  0.80074045  0.00000000  0.59836003  1
  Hf  Hf11  1  0.10151678  0.50000000  0.70522327  1
  Nb  Nb12  1  0.49623376  0.50000000  0.49121595  1
  Nb  Nb13  1  0.20250637  0.00000000  0.39255964  1
  Ta  Ta14  1  0.39937812  0.00000000  0.80450221  1
  Ta  Ta15  1  0.70191022  0.50000000  0.90556479  1
  Ti  Ti16  1  0.29680939  0.50000000  0.10067173  1
  Ti  Ti17  1  0.00547232  0.00000000  0.00605277  1
  W  W18  1  0.58692726  0.00000000  0.19619622  1
  W  W19  1  0.91009385  0.50000000  0.29862847  1
