# generated using pymatgen
data_HfTaTiNbVC5
_symmetry_space_group_name_H-M   'P 1'
_cell_length_a   7.00624276
_cell_length_b   4.44028534
_cell_length_c   7.00749224
_cell_angle_alpha   90.00000000
_cell_angle_beta   89.92660055
_cell_angle_gamma   90.00000000
_symmetry_Int_Tables_number   1
_chemical_formula_structural   HfTaTiNbVC5
_chemical_formula_sum   'Hf2 Ta2 Ti2 Nb2 V2 C10'
_cell_volume   218.00092170
_cell_formula_units_Z   2
loop_
 _symmetry_equiv_pos_site_id
 _symmetry_equiv_pos_as_xyz
  1  'x, y, z'
loop_
 _atom_site_type_symbol
 _atom_site_label
 _atom_site_symmetry_multiplicity
 _atom_site_fract_x
 _atom_site_fract_y
 _atom_site_fract_z
 _atom_site_occupancy
  C  C0  1  0.69719940  0.00000000  0.90154264  1
  C  C1  1  0.49132153  0.00000000  0.50684188  1
  C  C2  1  0.60260963  0.50000000  0.19712053  1
  C  C3  1  0.90602140  0.00000000  0.29579627  1
  C  C4  1  0.99841682  0.50000000  0.99754890  1
  C  C5  1  0.29757072  0.00000000  0.09646896  1
  C  C6  1  0.39385676  0.50000000  0.80361506  1
  C  C7  1  0.80826318  0.50000000  0.60038032  1
  C  C8  1  0.11311823  0.00000000  0.70034532  1
  C  C9  1  0.19237395  0.50000000  0.40477752  1
  Hf  Hf10  1  0.49767027  0.50000000  0.50217264  1
  Hf  Hf11  1  0.80871018  0.00000000  0.60086429  1
  V  V12  1  0.39255502  0.00000000  0.78950037  1
  V  V13  1  0.10865870  0.50000000  0.69698120  1
  Nb  Nb14  1  0.29515472  0.50000000  0.10222506  1
  Nb  Nb15  1  0.59375014  0.00000000  0.19885201  1
  Ta  Ta16  1  0.69851409  0.50000000  0.90010216  1
  Ta  Ta17  1  0.00701617  0.00000000  0.99984991  1
  Ti  Ti18  1  0.19671448  0.00000000  0.40380921  1
  Ti  Ti19  1  0.90050461  0.50000000  0.30120574  1
