# generated using pymatgen
data_TiNiC
_symmetry_space_group_name_H-M   'P 1'
_cell_length_a   7.80003848
_cell_length_b   8.68083393
_cell_length_c   3.12196110
_cell_angle_alpha   90.00000000
_cell_angle_beta   90.00000000
_cell_angle_gamma   141.79339171
_symmetry_Int_Tables_number   1
_chemical_formula_structural   TiNiC
_chemical_formula_sum   'Ti4 Ni4 C4'
_cell_volume   130.74488367
_cell_formula_units_Z   4
loop_
 _symmetry_equiv_pos_site_id
 _symmetry_equiv_pos_as_xyz
  1  'x, y, z'
loop_
 _atom_site_type_symbol
 _atom_site_label
 _atom_site_symmetry_multiplicity
 _atom_site_fract_x
 _atom_site_fract_y
 _atom_site_fract_z
 _atom_site_occupancy
  C  C0  1  0.61770426  0.08899055  0.50000000  1
  C  C1  1  0.19201517  0.44527601  0.00000000  1
  C  C2  1  0.76207838  0.81561822  0.50000000  1
  C  C3  1  0.70779995  0.47772965  0.00000000  1
  Ni  Ni4  1  0.47280874  0.49043749  0.00000000  1
  Ni  Ni5  1  0.34948300  0.90859325  0.00000000  1
  Ni  Ni6  1  0.96121931  0.88964260  0.00000000  1
  Ni  Ni7  1  0.96317646  0.66620080  0.50000000  1
  Ti  Ti8  1  0.41604498  0.71480984  0.50000000  1
  Ti  Ti9  1  0.43412495  0.20746648  0.50000000  1
  Ti  Ti10  1  0.01111138  0.18726731  0.50000000  1
  Ti  Ti11  1  0.86243340  0.35796782  0.00000000  1
