# generated using pymatgen
data_ZnNi
_symmetry_space_group_name_H-M   'P 1'
_cell_length_a   5.81775717
_cell_length_b   5.72470414
_cell_length_c   7.39471930
_cell_angle_alpha   89.98952311
_cell_angle_beta   90.15068853
_cell_angle_gamma   90.99615952
_symmetry_Int_Tables_number   1
_chemical_formula_structural   ZnNi
_chemical_formula_sum   'Zn10 Ni10'
_cell_volume   246.24259577
_cell_formula_units_Z   10
loop_
 _symmetry_equiv_pos_site_id
 _symmetry_equiv_pos_as_xyz
  1  'x, y, z'
loop_
 _atom_site_type_symbol
 _atom_site_label
 _atom_site_symmetry_multiplicity
 _atom_site_fract_x
 _atom_site_fract_y
 _atom_site_fract_z
 _atom_site_occupancy
  Zn  Zn0  1  0.09885051  0.28581783  0.74600412  1
  Zn  Zn1  1  0.08268966  0.29459843  0.25642708  1
  Zn  Zn2  1  0.19380970  0.62746458  0.49335260  1
  Zn  Zn3  1  0.40589379  0.17250450  0.49186070  1
  Zn  Zn4  1  0.49860214  0.52341284  0.74867965  1
  Zn  Zn5  1  0.69775788  0.08886453  0.74592657  1
  Zn  Zn6  1  0.39409600  0.18550765  0.00722870  1
  Zn  Zn7  1  0.51119685  0.51271388  0.25147135  1
  Zn  Zn8  1  0.91082311  0.70818899  0.75293338  1
  Zn  Zn9  1  0.80745164  0.40358136  0.00760448  1
  Ni  Ni10  1  0.99320753  0.00480394  0.49506692  1
  Ni  Ni11  1  0.99720428  0.99638213  0.00409601  1
  Ni  Ni12  1  0.30018760  0.90228020  0.75558561  1
  Ni  Ni13  1  0.20379876  0.59760881  0.00290949  1
  Ni  Ni14  1  0.29659608  0.89562147  0.24319201  1
  Ni  Ni15  1  0.60908572  0.79588477  0.49422936  1
  Ni  Ni16  1  0.69710641  0.09137331  0.24762448  1
  Ni  Ni17  1  0.79585666  0.40297362  0.50511230  1
  Ni  Ni18  1  0.60338646  0.80153518  0.00293832  1
  Ni  Ni19  1  0.90239920  0.70888200  0.24775685  1
