# generated using pymatgen
data_NiMo
_symmetry_space_group_name_H-M   'P 1'
_cell_length_a   5.84377056
_cell_length_b   6.09087659
_cell_length_c   7.52135614
_cell_angle_alpha   90.70433815
_cell_angle_beta   89.86270531
_cell_angle_gamma   88.11782764
_symmetry_Int_Tables_number   1
_chemical_formula_structural   NiMo
_chemical_formula_sum   'Ni10 Mo10'
_cell_volume   267.54708082
_cell_formula_units_Z   10
loop_
 _symmetry_equiv_pos_site_id
 _symmetry_equiv_pos_as_xyz
  1  'x, y, z'
loop_
 _atom_site_type_symbol
 _atom_site_label
 _atom_site_symmetry_multiplicity
 _atom_site_fract_x
 _atom_site_fract_y
 _atom_site_fract_z
 _atom_site_occupancy
  Mo  Mo0  1  0.11227613  0.29102939  0.74001963  1
  Mo  Mo1  1  0.07966906  0.29482671  0.26786138  1
  Mo  Mo2  1  0.20687416  0.62603273  0.48466189  1
  Mo  Mo3  1  0.39899428  0.17232434  0.47851179  1
  Mo  Mo4  1  0.49945289  0.51832108  0.75915886  1
  Mo  Mo5  1  0.68171661  0.10294853  0.75014837  1
  Mo  Mo6  1  0.37544224  0.18833749  0.02543724  1
  Mo  Mo7  1  0.52509313  0.50978594  0.24474261  1
  Mo  Mo8  1  0.91173464  0.71378878  0.74534715  1
  Mo  Mo9  1  0.82715475  0.39829415  0.00086199  1
  Ni  Ni10  1  0.98604877  0.00016699  0.49402702  1
  Ni  Ni11  1  0.99685273  0.98237244  0.00455067  1
  Ni  Ni12  1  0.30023146  0.89880930  0.75550456  1
  Ni  Ni13  1  0.20735439  0.61136094  0.00714669  1
  Ni  Ni14  1  0.29642931  0.88887311  0.24243953  1
  Ni  Ni15  1  0.60801028  0.79639017  0.49441722  1
  Ni  Ni16  1  0.70008382  0.08570465  0.24660616  1
  Ni  Ni17  1  0.79042992  0.40493124  0.50558727  1
  Ni  Ni18  1  0.59475785  0.80383687  0.00337753  1
  Ni  Ni19  1  0.90139358  0.71186518  0.24959244  1
