# generated using pymatgen
data_NiW
_symmetry_space_group_name_H-M   'P 1'
_cell_length_a   5.89311745
_cell_length_b   6.07339292
_cell_length_c   7.59953700
_cell_angle_alpha   90.69264995
_cell_angle_beta   89.86781152
_cell_angle_gamma   88.80112491
_symmetry_Int_Tables_number   1
_chemical_formula_structural   NiW
_chemical_formula_sum   'Ni10 W10'
_cell_volume   271.91638008
_cell_formula_units_Z   10
loop_
 _symmetry_equiv_pos_site_id
 _symmetry_equiv_pos_as_xyz
  1  'x, y, z'
loop_
 _atom_site_type_symbol
 _atom_site_label
 _atom_site_symmetry_multiplicity
 _atom_site_fract_x
 _atom_site_fract_y
 _atom_site_fract_z
 _atom_site_occupancy
  W  W0  1  0.11103917  0.29030806  0.74104749  1
  W  W1  1  0.07846326  0.29270066  0.26781614  1
  W  W2  1  0.20352527  0.62784325  0.48423790  1
  W  W3  1  0.40062883  0.17300062  0.47711555  1
  W  W4  1  0.49606693  0.51847317  0.75625058  1
  W  W5  1  0.68499559  0.10166948  0.74876051  1
  W  W6  1  0.38124220  0.18577303  0.02378390  1
  W  W7  1  0.52251785  0.51274279  0.24833320  1
  W  W8  1  0.91148308  0.71461519  0.74842454  1
  W  W9  1  0.82340732  0.39934123  0.00093366  1
  Ni  Ni10  1  0.98647715  0.99920756  0.49402430  1
  Ni  Ni11  1  0.00089933  0.98554629  0.00496134  1
  Ni  Ni12  1  0.30118357  0.90033109  0.75574463  1
  Ni  Ni13  1  0.20604808  0.60875455  0.00718952  1
  Ni  Ni14  1  0.29675273  0.88924897  0.24182129  1
  Ni  Ni15  1  0.60829193  0.79714551  0.49498794  1
  Ni  Ni16  1  0.70075186  0.08637068  0.24763579  1
  Ni  Ni17  1  0.79179789  0.40605077  0.50527262  1
  Ni  Ni18  1  0.59298836  0.80135407  0.00214437  1
  Ni  Ni19  1  0.90143961  0.70952301  0.24951477  1
