# generated using pymatgen
data_MnNi
_symmetry_space_group_name_H-M   'P 1'
_cell_length_a   5.59113084
_cell_length_b   5.60470438
_cell_length_c   7.08827767
_cell_angle_alpha   89.90497514
_cell_angle_beta   89.70048043
_cell_angle_gamma   89.95076034
_symmetry_Int_Tables_number   1
_chemical_formula_structural   MnNi
_chemical_formula_sum   'Mn10 Ni10'
_cell_volume   222.11935277
_cell_formula_units_Z   10
loop_
 _symmetry_equiv_pos_site_id
 _symmetry_equiv_pos_as_xyz
  1  'x, y, z'
loop_
 _atom_site_type_symbol
 _atom_site_label
 _atom_site_symmetry_multiplicity
 _atom_site_fract_x
 _atom_site_fract_y
 _atom_site_fract_z
 _atom_site_occupancy
  Mn  Mn0  1  0.11172722  0.30681263  0.74423240  1
  Mn  Mn1  1  0.09354276  0.29988120  0.23967916  1
  Mn  Mn2  1  0.19904924  0.61046253  0.50485224  1
  Mn  Mn3  1  0.40761328  0.19255798  0.50082924  1
  Mn  Mn4  1  0.50884920  0.50361220  0.75602987  1
  Mn  Mn5  1  0.69998674  0.10012463  0.74729468  1
  Mn  Mn6  1  0.39978651  0.20664175  0.01297655  1
  Mn  Mn7  1  0.50599905  0.49373898  0.24589957  1
  Mn  Mn8  1  0.88750754  0.68815064  0.75360140  1
  Mn  Mn9  1  0.79319431  0.40298758  -0.00085283  1
  Ni  Ni10  1  0.00200993  0.00307766  0.50333321  1
  Ni  Ni11  1  0.00019701  0.00060199  0.99467546  1
  Ni  Ni12  1  0.29891322  0.89968947  0.75279265  1
  Ni  Ni13  1  0.19820065  0.59707997  0.99763574  1
  Ni  Ni14  1  0.29939312  0.89444297  0.24895110  1
  Ni  Ni15  1  0.59993676  0.79484452  0.50044580  1
  Ni  Ni16  1  0.70199815  0.09888974  0.24819857  1
  Ni  Ni17  1  0.79883979  0.40373046  0.49917502  1
  Ni  Ni18  1  0.59477259  0.80282040  0.00170594  1
  Ni  Ni19  1  0.89848296  0.69985273  0.24854425  1
