# generated using pymatgen
data_NiMo
_symmetry_space_group_name_H-M   'P 1'
_cell_length_a   6.61219511
_cell_length_b   7.33497334
_cell_length_c   5.55792335
_cell_angle_alpha   90.00000000
_cell_angle_beta   90.00000000
_cell_angle_gamma   82.18212392
_symmetry_Int_Tables_number   1
_chemical_formula_structural   NiMo
_chemical_formula_sum   'Ni10 Mo10'
_cell_volume   267.05536352
_cell_formula_units_Z   10
loop_
 _symmetry_equiv_pos_site_id
 _symmetry_equiv_pos_as_xyz
  1  'x, y, z'
loop_
 _atom_site_type_symbol
 _atom_site_label
 _atom_site_symmetry_multiplicity
 _atom_site_fract_x
 _atom_site_fract_y
 _atom_site_fract_z
 _atom_site_occupancy
  Mo  Mo0  1  0.20630091  0.42670717  0.99253658  1
  Mo  Mo1  1  0.08241427  0.71802315  0.25000000  1
  Mo  Mo2  1  0.40609095  0.79770107  0.99185774  1
  Mo  Mo3  1  0.27915476  0.11045316  0.25000000  1
  Mo  Mo4  1  0.59912724  0.16662350  0.99113239  1
  Mo  Mo5  1  0.20630091  0.42670717  0.50746342  1
  Mo  Mo6  1  0.52590269  0.48646278  0.25000000  1
  Mo  Mo7  1  0.40609095  0.79770107  0.50814226  1
  Mo  Mo8  1  0.59912724  0.16662350  0.50886761  1
  Mo  Mo9  1  0.89521214  0.30526541  0.75000000  1
  Ni  Ni10  1  0.98105741  0.01120162  0.00368138  1
  Ni  Ni11  1  0.98105741  0.01120162  0.49631862  1
  Ni  Ni12  1  0.81066804  0.59504285  0.99586085  1
  Ni  Ni13  1  0.08460396  0.73291562  0.75000000  1
  Ni  Ni14  1  0.71008730  0.87941814  0.25000000  1
  Ni  Ni15  1  0.26189429  0.10428885  0.75000000  1
  Ni  Ni16  1  0.90158001  0.30376101  0.25000000  1
  Ni  Ni17  1  0.53108653  0.49220988  0.75000000  1
  Ni  Ni18  1  0.81066804  0.59504285  0.50413915  1
  Ni  Ni19  1  0.72157495  0.87264961  0.75000000  1
