# generated using pymatgen
data_VNi
_symmetry_space_group_name_H-M   'P 1'
_cell_length_a   5.98670331
_cell_length_b   5.99168686
_cell_length_c   6.73476996
_cell_angle_alpha   90.00000000
_cell_angle_beta   90.00000000
_cell_angle_gamma   90.06863251
_symmetry_Int_Tables_number   1
_chemical_formula_structural   VNi
_chemical_formula_sum   'V10 Ni10'
_cell_volume   241.57906623
_cell_formula_units_Z   10
loop_
 _symmetry_equiv_pos_site_id
 _symmetry_equiv_pos_as_xyz
  1  'x, y, z'
loop_
 _atom_site_type_symbol
 _atom_site_label
 _atom_site_symmetry_multiplicity
 _atom_site_fract_x
 _atom_site_fract_y
 _atom_site_fract_z
 _atom_site_occupancy
  V  V0  1  0.19023000  0.39545654  0.99310496  1
  V  V1  1  0.06803818  0.69851003  0.25000000  1
  V  V2  1  0.39520619  0.79932554  0.00560656  1
  V  V3  1  0.30162134  0.10359697  0.25000000  1
  V  V4  1  0.61761386  0.19773385  0.00030033  1
  V  V5  1  0.19023000  0.39545654  0.50689504  1
  V  V6  1  0.51484545  0.51110779  0.25000000  1
  V  V7  1  0.39520619  0.79932554  0.49439344  1
  V  V8  1  0.61761386  0.19773385  0.49969967  1
  V  V9  1  0.89574603  0.30030483  0.75000000  1
  Ni  Ni10  1  0.00272454  0.99745821  0.99817857  1
  Ni  Ni11  1  0.00272454  0.99745821  0.50182143  1
  Ni  Ni12  1  0.79812386  0.60055100  0.99290699  1
  Ni  Ni13  1  0.10512185  0.70760772  0.75000000  1
  Ni  Ni14  1  0.71071927  0.90599603  0.25000000  1
  Ni  Ni15  1  0.30941440  0.10063413  0.75000000  1
  Ni  Ni16  1  0.90483934  0.30113923  0.25000000  1
  Ni  Ni17  1  0.48635633  0.49595242  0.75000000  1
  Ni  Ni18  1  0.79812386  0.60055100  0.50709301  1
  Ni  Ni19  1  0.69550088  0.89410055  0.75000000  1
