# generated using pymatgen
data_ZnNi
_symmetry_space_group_name_H-M   'P 1'
_cell_length_a   5.77277698
_cell_length_b   5.77903346
_cell_length_c   7.39647023
_cell_angle_alpha   90.00000000
_cell_angle_beta   90.00000000
_cell_angle_gamma   89.75527839
_symmetry_Int_Tables_number   1
_chemical_formula_structural   ZnNi
_chemical_formula_sum   'Zn10 Ni10'
_cell_volume   246.75192027
_cell_formula_units_Z   10
loop_
 _symmetry_equiv_pos_site_id
 _symmetry_equiv_pos_as_xyz
  1  'x, y, z'
loop_
 _atom_site_type_symbol
 _atom_site_label
 _atom_site_symmetry_multiplicity
 _atom_site_fract_x
 _atom_site_fract_y
 _atom_site_fract_z
 _atom_site_occupancy
  Zn  Zn0  1  0.19018683  0.39769620  0.99264212  1
  Zn  Zn1  1  0.05940827  0.69902113  0.25000000  1
  Zn  Zn2  1  0.40535609  0.80128457  0.98030613  1
  Zn  Zn3  1  0.28409100  0.08941129  0.25000000  1
  Zn  Zn4  1  0.61417081  0.19916894  0.99698821  1
  Zn  Zn5  1  0.19018683  0.39769620  0.50735788  1
  Zn  Zn6  1  0.53483111  0.51552655  0.25000000  1
  Zn  Zn7  1  0.40535609  0.80128457  0.51969387  1
  Zn  Zn8  1  0.61417081  0.19916894  0.50301179  1
  Zn  Zn9  1  0.90019223  0.29848026  0.75000000  1
  Ni  Ni10  1  0.99987682  0.99146280  0.99677780  1
  Ni  Ni11  1  0.99987682  0.99146280  0.50322220  1
  Ni  Ni12  1  0.79997095  0.60596974  0.98996953  1
  Ni  Ni13  1  0.09527687  0.70790647  0.75000000  1
  Ni  Ni14  1  0.68619086  0.91301926  0.25000000  1
  Ni  Ni15  1  0.29991330  0.10365237  0.75000000  1
  Ni  Ni16  1  0.90729219  0.29348092  0.25000000  1
  Ni  Ni17  1  0.50148158  0.49331603  0.75000000  1
  Ni  Ni18  1  0.79997095  0.60596974  0.51003047  1
  Ni  Ni19  1  0.71219957  0.89502124  0.75000000  1
