# generated using pymatgen
data_CoNi
_symmetry_space_group_name_H-M   'P 1'
_cell_length_a   5.55231331
_cell_length_b   5.57385052
_cell_length_c   7.02708641
_cell_angle_alpha   90.01035197
_cell_angle_beta   89.95541200
_cell_angle_gamma   89.88923591
_symmetry_Int_Tables_number   1
_chemical_formula_structural   CoNi
_chemical_formula_sum   'Co10 Ni10'
_cell_volume   217.47213897
_cell_formula_units_Z   10
loop_
 _symmetry_equiv_pos_site_id
 _symmetry_equiv_pos_as_xyz
  1  'x, y, z'
loop_
 _atom_site_type_symbol
 _atom_site_label
 _atom_site_symmetry_multiplicity
 _atom_site_fract_x
 _atom_site_fract_y
 _atom_site_fract_z
 _atom_site_occupancy
  Co  Co0  1  0.10020955  0.30126208  0.75008268  1
  Co  Co1  1  0.10244471  0.30238841  0.25012014  1
  Co  Co2  1  0.20015772  0.59907524  0.50001162  1
  Co  Co3  1  0.39941111  0.20032144  0.50003343  1
  Co  Co4  1  0.50023135  0.49768417  0.75006409  1
  Co  Co5  1  0.70140602  0.10339916  0.75047977  1
  Co  Co6  1  0.39879842  0.20293480  0.99958319  1
  Co  Co7  1  0.49980197  0.49659443  0.25025226  1
  Co  Co8  1  0.89698452  0.69606025  0.74993409  1
  Co  Co9  1  0.80102829  0.40028408  0.99955883  1
  Ni  Ni10  1  0.00282325  0.00056643  0.50085995  1
  Ni  Ni11  1  0.00088111  0.00063771  0.99921624  1
  Ni  Ni12  1  0.30004763  0.90066693  0.75030525  1
  Ni  Ni13  1  0.20018129  0.59769859  0.99961497  1
  Ni  Ni14  1  0.30025789  0.90050428  0.25012227  1
  Ni  Ni15  1  0.59814509  0.79953470  0.50085709  1
  Ni  Ni16  1  0.70085511  0.10134478  0.24970455  1
  Ni  Ni17  1  0.79923455  0.39972968  0.49985144  1
  Ni  Ni18  1  0.59837556  0.80089310  0.99929223  1
  Ni  Ni19  1  0.89872486  0.69841974  0.25005594  1
