# generated using pymatgen
data_MnNi
_symmetry_space_group_name_H-M   'P 1'
_cell_length_a   5.80424550
_cell_length_b   5.78419479
_cell_length_c   6.98618873
_cell_angle_alpha   90.00000000
_cell_angle_beta   90.00000000
_cell_angle_gamma   89.24439059
_symmetry_Int_Tables_number   1
_chemical_formula_structural   MnNi
_chemical_formula_sum   'Mn10 Ni10'
_cell_volume   234.52612585
_cell_formula_units_Z   10
loop_
 _symmetry_equiv_pos_site_id
 _symmetry_equiv_pos_as_xyz
  1  'x, y, z'
loop_
 _atom_site_type_symbol
 _atom_site_label
 _atom_site_symmetry_multiplicity
 _atom_site_fract_x
 _atom_site_fract_y
 _atom_site_fract_z
 _atom_site_occupancy
  Mn  Mn0  1  0.18883096  0.39568446  0.99897464  1
  Mn  Mn1  1  0.08263721  0.69210563  0.24998688  1
  Mn  Mn2  1  0.40006892  0.79969464  0.99737794  1
  Mn  Mn3  1  0.29766219  0.09904446  0.24999142  1
  Mn  Mn4  1  0.61334711  0.20361999  0.99887884  1
  Mn  Mn5  1  0.18884569  0.39571493  0.50102156  1
  Mn  Mn6  1  0.51729942  0.51067327  0.24999645  1
  Mn  Mn7  1  0.40008606  0.79967980  0.50263406  1
  Mn  Mn8  1  0.61332453  0.20361845  0.50111585  1
  Mn  Mn9  1  0.90030315  0.30024971  0.75002944  1
  Ni  Ni10  1  0.00021890  0.99847006  0.00179372  1
  Ni  Ni11  1  0.00025435  0.99847672  0.49819060  1
  Ni  Ni12  1  0.79865639  0.60148654  0.99548738  1
  Ni  Ni13  1  0.09848295  0.70479914  0.75000716  1
  Ni  Ni14  1  0.70111958  0.90011395  0.24999203  1
  Ni  Ni15  1  0.29925766  0.09928928  0.75001037  1
  Ni  Ni16  1  0.90044735  0.29976242  0.24998420  1
  Ni  Ni17  1  0.49786510  0.49824159  0.75000458  1
  Ni  Ni18  1  0.79863902  0.60148172  0.50450981  1
  Ni  Ni19  1  0.70265346  0.89779325  0.75001306  1
