# generated using pymatgen
data_NiW
_symmetry_space_group_name_H-M   'P 1'
_cell_length_a   6.62613850
_cell_length_b   7.28249899
_cell_length_c   5.66089419
_cell_angle_alpha   90.00000000
_cell_angle_beta   90.00000000
_cell_angle_gamma   82.89743349
_symmetry_Int_Tables_number   1
_chemical_formula_structural   NiW
_chemical_formula_sum   'Ni10 W10'
_cell_volume   271.06941939
_cell_formula_units_Z   10
loop_
 _symmetry_equiv_pos_site_id
 _symmetry_equiv_pos_as_xyz
  1  'x, y, z'
loop_
 _atom_site_type_symbol
 _atom_site_label
 _atom_site_symmetry_multiplicity
 _atom_site_fract_x
 _atom_site_fract_y
 _atom_site_fract_z
 _atom_site_occupancy
  W  W0  1  0.20707567  0.42606733  0.99318473  1
  W  W1  1  0.07987210  0.72092518  0.25000000  1
  W  W2  1  0.40680912  0.79690211  0.99118485  1
  W  W3  1  0.27812213  0.10810053  0.25000000  1
  W  W4  1  0.59922195  0.16526633  0.99244826  1
  W  W5  1  0.20707567  0.42606733  0.50681527  1
  W  W6  1  0.52818802  0.48765925  0.25000000  1
  W  W7  1  0.40680912  0.79690211  0.50881515  1
  W  W8  1  0.59922195  0.16526633  0.50755174  1
  W  W9  1  0.89509810  0.30686323  0.75000000  1
  Ni  Ni10  1  0.98019026  0.01193583  0.00196303  1
  Ni  Ni11  1  0.98019026  0.01193583  0.49803697  1
  Ni  Ni12  1  0.81153688  0.59560523  0.99385300  1
  Ni  Ni13  1  0.08601156  0.73309341  0.75000000  1
  Ni  Ni14  1  0.70948459  0.87902255  0.25000000  1
  Ni  Ni15  1  0.26228717  0.10503373  0.75000000  1
  Ni  Ni16  1  0.90096062  0.30353438  0.25000000  1
  Ni  Ni17  1  0.53077393  0.49178539  0.75000000  1
  Ni  Ni18  1  0.81153688  0.59560523  0.50614700  1
  Ni  Ni19  1  0.71953404  0.87242868  0.75000000  1
