# generated using pymatgen
data_CuNi
_symmetry_space_group_name_H-M   'P 1'
_cell_length_a   5.62904300
_cell_length_b   5.64700756
_cell_length_c   7.15461998
_cell_angle_alpha   89.99504154
_cell_angle_beta   89.98229855
_cell_angle_gamma   89.93591941
_symmetry_Int_Tables_number   1
_chemical_formula_structural   CuNi
_chemical_formula_sum   'Cu10 Ni10'
_cell_volume   227.42552842
_cell_formula_units_Z   10
loop_
 _symmetry_equiv_pos_site_id
 _symmetry_equiv_pos_as_xyz
  1  'x, y, z'
loop_
 _atom_site_type_symbol
 _atom_site_label
 _atom_site_symmetry_multiplicity
 _atom_site_fract_x
 _atom_site_fract_y
 _atom_site_fract_z
 _atom_site_occupancy
  Cu  Cu0  1  0.09842294  0.29731498  0.75039342  1
  Cu  Cu1  1  0.09768528  0.30064057  0.24923650  1
  Cu  Cu2  1  0.20017138  0.60336303  0.49930457  1
  Cu  Cu3  1  0.39963783  0.19590463  0.49924924  1
  Cu  Cu4  1  0.50125347  0.50400854  0.74988640  1
  Cu  Cu5  1  0.69880049  0.09737747  0.74961734  1
  Cu  Cu6  1  0.39704659  0.19892707  0.00089092  1
  Cu  Cu7  1  0.50283923  0.50028130  0.24962692  1
  Cu  Cu8  1  0.90136674  0.70117823  0.74985106  1
  Cu  Cu9  1  0.80216529  0.40010294  0.00242771  1
  Ni  Ni10  1  0.99708866  0.00110062  0.49671992  1
  Ni  Ni11  1  0.99773689  0.99312805  0.00363367  1
  Ni  Ni12  1  0.29906910  0.89862272  0.75090879  1
  Ni  Ni13  1  0.20306537  0.60802190  0.00133515  1
  Ni  Ni14  1  0.29909807  0.89875558  0.24969797  1
  Ni  Ni15  1  0.60355128  0.79955180  0.49663551  1
  Ni  Ni16  1  0.69901139  0.09263322  0.25140743  1
  Ni  Ni17  1  0.79961991  0.39979168  0.49571937  1
  Ni  Ni18  1  0.59962327  0.80331169  0.00346040  1
  Ni  Ni19  1  0.90274681  0.70598397  0.24999770  1
