# generated using pymatgen
data_HfNi
_symmetry_space_group_name_H-M   'P 1'
_cell_length_a   7.18974167
_cell_length_b   5.18860678
_cell_length_c   9.17937341
_cell_angle_alpha   94.15398095
_cell_angle_beta   99.24625978
_cell_angle_gamma   100.65437778
_symmetry_Int_Tables_number   1
_chemical_formula_structural   HfNi
_chemical_formula_sum   'Hf10 Ni10'
_cell_volume   330.31134018
_cell_formula_units_Z   10
loop_
 _symmetry_equiv_pos_site_id
 _symmetry_equiv_pos_as_xyz
  1  'x, y, z'
loop_
 _atom_site_type_symbol
 _atom_site_label
 _atom_site_symmetry_multiplicity
 _atom_site_fract_x
 _atom_site_fract_y
 _atom_site_fract_z
 _atom_site_occupancy
  Hf  Hf0  1  0.17664291  0.25755880  0.66904989  1
  Hf  Hf1  1  0.01284329  0.14766172  0.31407773  1
  Hf  Hf2  1  0.20836553  0.71359516  0.48011078  1
  Hf  Hf3  1  0.45181494  0.22783303  0.41297791  1
  Hf  Hf4  1  0.57309312  0.55441772  0.87587490  1
  Hf  Hf5  1  0.69774006  0.12124929  0.70514777  1
  Hf  Hf6  1  0.29805023  0.14128395  0.04388917  1
  Hf  Hf7  1  0.55579878  0.73911890  0.22709630  1
  Hf  Hf8  1  0.96213487  0.71441528  0.75658223  1
  Hf  Hf9  1  0.93463082  0.37828137  0.01618035  1
  Ni  Ni10  1  0.84084993  0.89424751  0.50050383  1
  Ni  Ni11  1  0.91541837  0.87450162  0.03509313  1
  Ni  Ni12  1  0.34678846  0.89511025  0.75316349  1
  Ni  Ni13  1  0.26255658  0.61983766  0.95449328  1
  Ni  Ni14  1  0.20469541  0.76503210  0.20569931  1
  Ni  Ni15  1  0.56669322  0.62386382  0.60020439  1
  Ni  Ni16  1  0.65441061  0.26249931  0.20770575  1
  Ni  Ni17  1  0.83720306  0.40727494  0.49753069  1
  Ni  Ni18  1  0.60269622  0.02901866  0.96917601  1
  Ni  Ni19  1  0.89757357  0.63319896  0.27544307  1
