# generated using pymatgen
data_NbNi
_symmetry_space_group_name_H-M   'P 1'
_cell_length_a   6.55391227
_cell_length_b   6.70522367
_cell_length_c   6.61952567
_cell_angle_alpha   90.00000000
_cell_angle_beta   90.00000000
_cell_angle_gamma   88.55807832
_symmetry_Int_Tables_number   1
_chemical_formula_structural   NbNi
_chemical_formula_sum   'Nb10 Ni10'
_cell_volume   290.80590482
_cell_formula_units_Z   10
loop_
 _symmetry_equiv_pos_site_id
 _symmetry_equiv_pos_as_xyz
  1  'x, y, z'
loop_
 _atom_site_type_symbol
 _atom_site_label
 _atom_site_symmetry_multiplicity
 _atom_site_fract_x
 _atom_site_fract_y
 _atom_site_fract_z
 _atom_site_occupancy
  Nb  Nb0  1  0.19315375  0.40405483  0.99611309  1
  Nb  Nb1  1  0.04835646  0.70650628  0.25000000  1
  Nb  Nb2  1  0.40248727  0.79837028  0.98988161  1
  Nb  Nb3  1  0.29551419  0.09606829  0.25000000  1
  Nb  Nb4  1  0.62224894  0.18507858  0.00108601  1
  Nb  Nb5  1  0.19315375  0.40405483  0.50388691  1
  Nb  Nb6  1  0.52563392  0.50959773  0.25000000  1
  Nb  Nb7  1  0.40248727  0.79837028  0.51011839  1
  Nb  Nb8  1  0.62224894  0.18507858  0.49891399  1
  Nb  Nb9  1  0.89941669  0.30448853  0.75000000  1
  Ni  Ni10  1  0.99948459  0.99887172  0.99816335  1
  Ni  Ni11  1  0.99948459  0.99887172  0.50183665  1
  Ni  Ni12  1  0.79442422  0.60375530  0.97579577  1
  Ni  Ni13  1  0.08569868  0.72039281  0.75000000  1
  Ni  Ni14  1  0.70791908  0.89638777  0.25000000  1
  Ni  Ni15  1  0.29990434  0.10695288  0.75000000  1
  Ni  Ni16  1  0.90594413  0.30165895  0.25000000  1
  Ni  Ni17  1  0.48982529  0.48376688  0.75000000  1
  Ni  Ni18  1  0.79442422  0.60375530  0.52420423  1
  Ni  Ni19  1  0.71818966  0.89391842  0.75000000  1
