# generated using pymatgen
data_ZrNi
_symmetry_space_group_name_H-M   'P 1'
_cell_length_a   5.92184522
_cell_length_b   6.77081068
_cell_length_c   8.48002594
_cell_angle_alpha   90.00000000
_cell_angle_beta   90.00000000
_cell_angle_gamma   85.86896780
_symmetry_Int_Tables_number   1
_chemical_formula_structural   ZrNi
_chemical_formula_sum   'Zr10 Ni10'
_cell_volume   339.12913321
_cell_formula_units_Z   10
loop_
 _symmetry_equiv_pos_site_id
 _symmetry_equiv_pos_as_xyz
  1  'x, y, z'
loop_
 _atom_site_type_symbol
 _atom_site_label
 _atom_site_symmetry_multiplicity
 _atom_site_fract_x
 _atom_site_fract_y
 _atom_site_fract_z
 _atom_site_occupancy
  Zr  Zr0  1  0.21167521  0.40203959  0.95855653  1
  Zr  Zr1  1  0.00373199  0.75276030  0.25000000  1
  Zr  Zr2  1  0.39078560  0.84187954  0.94548606  1
  Zr  Zr3  1  0.23986848  0.12329480  0.25000000  1
  Zr  Zr4  1  0.70096049  0.19486450  0.06033403  1
  Zr  Zr5  1  0.21167521  0.40203959  0.54144347  1
  Zr  Zr6  1  0.48508292  0.53184172  0.25000000  1
  Zr  Zr7  1  0.39078560  0.84187954  0.55451394  1
  Zr  Zr8  1  0.70096049  0.19486450  0.43966597  1
  Zr  Zr9  1  0.87510760  0.22625459  0.75000000  1
  Ni  Ni10  1  0.96902865  0.91129024  0.97261454  1
  Ni  Ni11  1  0.96902865  0.91129024  0.52738546  1
  Ni  Ni12  1  0.77816636  0.58964472  0.98573683  1
  Ni  Ni13  1  0.07985279  0.66803336  0.75000000  1
  Ni  Ni14  1  0.58004180  0.88610854  0.25000000  1
  Ni  Ni15  1  0.44640009  0.15547930  0.75000000  1
  Ni  Ni16  1  0.94690510  0.40791491  0.25000000  1
  Ni  Ni17  1  0.51576297  0.52396764  0.75000000  1
  Ni  Ni18  1  0.77816636  0.58964472  0.51426317  1
  Ni  Ni19  1  0.72601367  0.84490765  0.75000000  1
