# generated using pymatgen
data_HfNi
_symmetry_space_group_name_H-M   'P 1'
_cell_length_a   5.97653954
_cell_length_b   6.75823368
_cell_length_c   8.20240000
_cell_angle_alpha   90.00000000
_cell_angle_beta   90.00000000
_cell_angle_gamma   87.90417051
_symmetry_Int_Tables_number   1
_chemical_formula_structural   HfNi
_chemical_formula_sum   'Hf10 Ni10'
_cell_volume   331.08029322
_cell_formula_units_Z   10
loop_
 _symmetry_equiv_pos_site_id
 _symmetry_equiv_pos_as_xyz
  1  'x, y, z'
loop_
 _atom_site_type_symbol
 _atom_site_label
 _atom_site_symmetry_multiplicity
 _atom_site_fract_x
 _atom_site_fract_y
 _atom_site_fract_z
 _atom_site_occupancy
  Hf  Hf0  1  0.19908010  0.38276396  0.96243874  1
  Hf  Hf1  1  0.00323448  0.73845984  0.25000000  1
  Hf  Hf2  1  0.39063481  0.81155989  0.95092704  1
  Hf  Hf3  1  0.23645874  0.10754140  0.25000000  1
  Hf  Hf4  1  0.71720625  0.13975592  0.06304457  1
  Hf  Hf5  1  0.19908010  0.38276396  0.53756126  1
  Hf  Hf6  1  0.49410389  0.50064415  0.25000000  1
  Hf  Hf7  1  0.39063481  0.81155989  0.54907296  1
  Hf  Hf8  1  0.71720625  0.13975592  0.43695543  1
  Hf  Hf9  1  0.80972710  0.31993605  0.75000000  1
  Ni  Ni10  1  0.04714766  0.01839930  0.89917858  1
  Ni  Ni11  1  0.04714766  0.01839930  0.60082142  1
  Ni  Ni12  1  0.77011895  0.58436736  0.99678880  1
  Ni  Ni13  1  0.06323559  0.66913138  0.75000000  1
  Ni  Ni14  1  0.57460003  0.86024822  0.25000000  1
  Ni  Ni15  1  0.43333187  0.14368360  0.75000000  1
  Ni  Ni16  1  0.94367971  0.38597100  0.25000000  1
  Ni  Ni17  1  0.47116870  0.53556199  0.75000000  1
  Ni  Ni18  1  0.77011895  0.58436736  0.50321120  1
  Ni  Ni19  1  0.72208433  0.86512955  0.75000000  1
