# generated using pymatgen
data_ZrNi
_symmetry_space_group_name_H-M   'P 1'
_cell_length_a   7.65651621
_cell_length_b   5.12880065
_cell_length_c   8.60944763
_cell_angle_alpha   89.59417472
_cell_angle_beta   99.06078883
_cell_angle_gamma   91.97677489
_symmetry_Int_Tables_number   1
_chemical_formula_structural   ZrNi
_chemical_formula_sum   'Zr10 Ni10'
_cell_volume   333.66440171
_cell_formula_units_Z   10
loop_
 _symmetry_equiv_pos_site_id
 _symmetry_equiv_pos_as_xyz
  1  'x, y, z'
loop_
 _atom_site_type_symbol
 _atom_site_label
 _atom_site_symmetry_multiplicity
 _atom_site_fract_x
 _atom_site_fract_y
 _atom_site_fract_z
 _atom_site_occupancy
  Zr  Zr0  1  0.12403583  0.19897065  0.71400827  1
  Zr  Zr1  1  0.04952196  0.19502940  0.32153885  1
  Zr  Zr2  1  0.19522585  0.70107563  0.50754623  1
  Zr  Zr3  1  0.44847267  0.19537927  0.45569991  1
  Zr  Zr4  1  0.50396497  0.52497232  0.85186834  1
  Zr  Zr5  1  0.72580865  0.14468726  0.72803274  1
  Zr  Zr6  1  0.32919444  0.12799434  0.06545515  1
  Zr  Zr7  1  0.55870032  0.67616956  0.25403892  1
  Zr  Zr8  1  0.89258743  0.67500955  0.73186253  1
  Zr  Zr9  1  0.90034338  0.41090695  0.02987719  1
  Ni  Ni10  1  0.81105947  0.94924107  0.47348939  1
  Ni  Ni11  1  0.00322138  0.93312873  0.00947800  1
  Ni  Ni12  1  0.41465393  0.98870606  0.76194258  1
  Ni  Ni13  1  0.20632227  0.65926128  0.88904183  1
  Ni  Ni14  1  0.21181029  0.64026555  0.19528449  1
  Ni  Ni15  1  0.55460213  0.68691892  0.56923933  1
  Ni  Ni16  1  0.66788353  0.19323620  0.22443766  1
  Ni  Ni17  1  0.81815391  0.43999481  0.46658521  1
  Ni  Ni18  1  0.68159585  0.92291062  0.00216874  1
  Ni  Ni19  1  0.90284175  0.73614184  0.24840464  1
