# generated using pymatgen
data_TiNi
_symmetry_space_group_name_H-M   'P 1'
_cell_length_a   5.98605626
_cell_length_b   5.83905182
_cell_length_c   7.77490174
_cell_angle_alpha   90.00000000
_cell_angle_beta   90.00000000
_cell_angle_gamma   87.80835920
_symmetry_Int_Tables_number   1
_chemical_formula_structural   TiNi
_chemical_formula_sum   'Ti10 Ni10'
_cell_volume   271.55651896
_cell_formula_units_Z   10
loop_
 _symmetry_equiv_pos_site_id
 _symmetry_equiv_pos_as_xyz
  1  'x, y, z'
loop_
 _atom_site_type_symbol
 _atom_site_label
 _atom_site_symmetry_multiplicity
 _atom_site_fract_x
 _atom_site_fract_y
 _atom_site_fract_z
 _atom_site_occupancy
  Ti  Ti0  1  0.18516731  0.37643494  0.99253994  1
  Ti  Ti1  1  0.05325701  0.69887823  0.25000000  1
  Ti  Ti2  1  0.39463286  0.80084030  0.95919085  1
  Ti  Ti3  1  0.32116374  0.08723329  0.25000000  1
  Ti  Ti4  1  0.63498256  0.20081228  0.99753293  1
  Ti  Ti5  1  0.18516731  0.37643494  0.50746006  1
  Ti  Ti6  1  0.50553310  0.53681074  0.25000000  1
  Ti  Ti7  1  0.39463286  0.80084030  0.54080915  1
  Ti  Ti8  1  0.63498256  0.20081228  0.50246707  1
  Ti  Ti9  1  0.88963008  0.32882064  0.75000000  1
  Ni  Ni10  1  0.00462885  0.98366117  0.99144731  1
  Ni  Ni11  1  0.00462885  0.98366117  0.50855269  1
  Ni  Ni12  1  0.79033746  0.61031028  0.99986087  1
  Ni  Ni13  1  0.09232916  0.70713115  0.75000000  1
  Ni  Ni14  1  0.69833747  0.92336703  0.25000000  1
  Ni  Ni15  1  0.30723354  0.10831496  0.75000000  1
  Ni  Ni16  1  0.91275980  0.28829417  0.25000000  1
  Ni  Ni17  1  0.48365932  0.48521832  0.75000000  1
  Ni  Ni18  1  0.79033746  0.61031028  0.50013913  1
  Ni  Ni19  1  0.71659870  0.89181354  0.75000000  1
