# generated using pymatgen
data_FeNi
_symmetry_space_group_name_H-M   'P 1'
_cell_length_a   5.71280481
_cell_length_b   5.61766428
_cell_length_c   7.08500660
_cell_angle_alpha   89.99999412
_cell_angle_beta   89.99985702
_cell_angle_gamma   89.58811768
_symmetry_Int_Tables_number   1
_chemical_formula_structural   FeNi
_chemical_formula_sum   'Fe10 Ni10'
_cell_volume   227.37054612
_cell_formula_units_Z   10
loop_
 _symmetry_equiv_pos_site_id
 _symmetry_equiv_pos_as_xyz
  1  'x, y, z'
loop_
 _atom_site_type_symbol
 _atom_site_label
 _atom_site_symmetry_multiplicity
 _atom_site_fract_x
 _atom_site_fract_y
 _atom_site_fract_z
 _atom_site_occupancy
  Fe  Fe0  1  0.19692702  0.39653714  0.99609779  1
  Fe  Fe1  1  0.08565270  0.69718588  0.25001259  1
  Fe  Fe2  1  0.39921807  0.80113995  0.99669160  1
  Fe  Fe3  1  0.29931713  0.09953381  0.25001487  1
  Fe  Fe4  1  0.60677712  0.20034728  0.00018954  1
  Fe  Fe5  1  0.19693520  0.39654167  0.50389819  1
  Fe  Fe6  1  0.50739352  0.51091892  0.25001528  1
  Fe  Fe7  1  0.39921708  0.80113723  0.50330566  1
  Fe  Fe8  1  0.60676809  0.20034592  0.49980705  1
  Fe  Fe9  1  0.89826795  0.30059879  0.74998509  1
  Ni  Ni10  1  0.00010127  0.99908478  0.00000584  1
  Ni  Ni11  1  0.00010216  0.99908453  0.49999188  1
  Ni  Ni12  1  0.80014294  0.59931473  0.99782475  1
  Ni  Ni13  1  0.09882672  0.70186245  0.74999255  1
  Ni  Ni14  1  0.70380859  0.90428200  0.25000836  1
  Ni  Ni15  1  0.29958983  0.10000951  0.74999105  1
  Ni  Ni16  1  0.90172542  0.29979766  0.25000994  1
  Ni  Ni17  1  0.49754026  0.49695043  0.74999163  1
  Ni  Ni18  1  0.80014223  0.59931354  0.50217232  1
  Ni  Ni19  1  0.70154669  0.89601380  0.74999406  1
