# generated using pymatgen
data_CoNi
_symmetry_space_group_name_H-M   'P 1'
_cell_length_a   6.09036742
_cell_length_b   7.43773747
_cell_length_c   4.98013154
_cell_angle_alpha   90.00000000
_cell_angle_beta   90.00000000
_cell_angle_gamma   74.40097516
_symmetry_Int_Tables_number   1
_chemical_formula_structural   CoNi
_chemical_formula_sum   'Co10 Ni10'
_cell_volume   217.28353157
_cell_formula_units_Z   10
loop_
 _symmetry_equiv_pos_site_id
 _symmetry_equiv_pos_as_xyz
  1  'x, y, z'
loop_
 _atom_site_type_symbol
 _atom_site_label
 _atom_site_symmetry_multiplicity
 _atom_site_fract_x
 _atom_site_fract_y
 _atom_site_fract_z
 _atom_site_occupancy
  Co  Co0  1  0.20246602  0.40006126  0.00101420  1
  Co  Co1  1  0.10380708  0.69649778  0.25000108  1
  Co  Co2  1  0.39889535  0.79999455  0.00318723  1
  Co  Co3  1  0.30108343  0.10106242  0.25000167  1
  Co  Co4  1  0.59684531  0.20081525  0.00140502  1
  Co  Co5  1  0.20246615  0.40006112  0.49898570  1
  Co  Co6  1  0.49982434  0.49850043  0.25000154  1
  Co  Co7  1  0.39889566  0.79999461  0.49681257  1
  Co  Co8  1  0.59684423  0.20081588  0.49859483  1
  Co  Co9  1  0.89890313  0.30141577  0.74999911  1
  Ni  Ni10  1  0.00072721  0.00100045  0.00042059  1
  Ni  Ni11  1  0.00072754  0.00100037  0.49957913  1
  Ni  Ni12  1  0.79957282  0.59890079  0.00019381  1
  Ni  Ni13  1  0.10075007  0.70140278  0.74999918  1
  Ni  Ni14  1  0.69993589  0.90071360  0.25000066  1
  Ni  Ni15  1  0.29984945  0.10030726  0.74999882  1
  Ni  Ni16  1  0.90092143  0.29937852  0.25000068  1
  Ni  Ni17  1  0.49896750  0.49977729  0.74999865  1
  Ni  Ni18  1  0.79957301  0.59890079  0.49980613  1
  Ni  Ni19  1  0.69894442  0.89939906  0.74999940  1
