# generated using pymatgen
data_CrNi
_symmetry_space_group_name_H-M   'P 1'
_cell_length_a   5.73691820
_cell_length_b   5.53827743
_cell_length_c   7.04812347
_cell_angle_alpha   90.00000000
_cell_angle_beta   90.00000000
_cell_angle_gamma   89.26046570
_symmetry_Int_Tables_number   1
_chemical_formula_structural   CrNi
_chemical_formula_sum   'Cr10 Ni10'
_cell_volume   223.91886835
_cell_formula_units_Z   10
loop_
 _symmetry_equiv_pos_site_id
 _symmetry_equiv_pos_as_xyz
  1  'x, y, z'
loop_
 _atom_site_type_symbol
 _atom_site_label
 _atom_site_symmetry_multiplicity
 _atom_site_fract_x
 _atom_site_fract_y
 _atom_site_fract_z
 _atom_site_occupancy
  Cr  Cr0  1  0.21049351  0.40830287  0.01563465  1
  Cr  Cr1  1  0.07767456  0.69523366  0.25000000  1
  Cr  Cr2  1  0.40113495  0.79745312  0.99696604  1
  Cr  Cr3  1  0.29833720  0.07535749  0.25000000  1
  Cr  Cr4  1  0.59509299  0.19997741  0.00785421  1
  Cr  Cr5  1  0.21049351  0.40830287  0.48436535  1
  Cr  Cr6  1  0.51400769  0.51593221  0.25000000  1
  Cr  Cr7  1  0.40113495  0.79745312  0.50303396  1
  Cr  Cr8  1  0.59509299  0.19997741  0.49214579  1
  Cr  Cr9  1  0.89279228  0.30088831  0.75000000  1
  Ni  Ni10  1  0.00075684  0.00249136  0.99847681  1
  Ni  Ni11  1  0.00075684  0.00249136  0.50152319  1
  Ni  Ni12  1  0.79756911  0.59692407  0.99698908  1
  Ni  Ni13  1  0.10240285  0.69867936  0.75000000  1
  Ni  Ni14  1  0.70632323  0.90239119  0.25000000  1
  Ni  Ni15  1  0.29993299  0.10362022  0.75000000  1
  Ni  Ni16  1  0.90416198  0.29858866  0.25000000  1
  Ni  Ni17  1  0.49597874  0.49733721  0.75000000  1
  Ni  Ni18  1  0.79756911  0.59692407  0.50301092  1
  Ni  Ni19  1  0.69829372  0.90167405  0.75000000  1
