# generated using pymatgen
data_TiNi
_symmetry_space_group_name_H-M   'P 1'
_cell_length_a   5.99258923
_cell_length_b   5.83984815
_cell_length_c   7.77443597
_cell_angle_alpha   90.00000000
_cell_angle_beta   90.00000000
_cell_angle_gamma   87.77229685
_symmetry_Int_Tables_number   1
_chemical_formula_structural   TiNi
_chemical_formula_sum   'Ti10 Ni10'
_cell_volume   271.86707088
_cell_formula_units_Z   10
loop_
 _symmetry_equiv_pos_site_id
 _symmetry_equiv_pos_as_xyz
  1  'x, y, z'
loop_
 _atom_site_type_symbol
 _atom_site_label
 _atom_site_symmetry_multiplicity
 _atom_site_fract_x
 _atom_site_fract_y
 _atom_site_fract_z
 _atom_site_occupancy
  Ti  Ti0  1  0.18515015  0.37631895  0.99246838  1
  Ti  Ti1  1  0.05348380  0.69886218  0.25000959  1
  Ti  Ti2  1  0.39467584  0.80084727  0.95900075  1
  Ti  Ti3  1  0.32127510  0.08691560  0.25000325  1
  Ti  Ti4  1  0.63499804  0.20080416  0.99756605  1
  Ti  Ti5  1  0.18516753  0.37631209  0.50753633  1
  Ti  Ti6  1  0.50553459  0.53696354  0.25000485  1
  Ti  Ti7  1  0.39466539  0.80084944  0.54100207  1
  Ti  Ti8  1  0.63499144  0.20078677  0.50243213  1
  Ti  Ti9  1  0.88929258  0.32935615  0.74999329  1
  Ni  Ni10  1  0.00471776  0.98363144  0.99133464  1
  Ni  Ni11  1  0.00471422  0.98362794  0.50866751  1
  Ni  Ni12  1  0.79034296  0.61029043  0.99991017  1
  Ni  Ni13  1  0.09222761  0.70712186  0.74999790  1
  Ni  Ni14  1  0.69830279  0.92338417  0.24999158  1
  Ni  Ni15  1  0.30718084  0.10845586  0.75000185  1
  Ni  Ni16  1  0.91293742  0.28828592  0.24999503  1
  Ni  Ni17  1  0.48345085  0.48514386  0.74999562  1
  Ni  Ni18  1  0.79033720  0.61030355  0.50008826  1
  Ni  Ni19  1  0.71655393  0.89173885  0.75000076  1
