# generated using pymatgen
data_SiNi
_symmetry_space_group_name_H-M   'P 1'
_cell_length_a   5.61167650
_cell_length_b   5.86734934
_cell_length_c   7.32186792
_cell_angle_alpha   90.00000000
_cell_angle_beta   90.00000000
_cell_angle_gamma   81.36623282
_symmetry_Int_Tables_number   1
_chemical_formula_structural   SiNi
_chemical_formula_sum   'Si10 Ni10'
_cell_volume   238.34551117
_cell_formula_units_Z   10
loop_
 _symmetry_equiv_pos_site_id
 _symmetry_equiv_pos_as_xyz
  1  'x, y, z'
loop_
 _atom_site_type_symbol
 _atom_site_label
 _atom_site_symmetry_multiplicity
 _atom_site_fract_x
 _atom_site_fract_y
 _atom_site_fract_z
 _atom_site_occupancy
  Si  Si0  1  0.18905171  0.37267976  0.99298144  1
  Si  Si1  1  0.06598847  0.68137702  0.25000000  1
  Si  Si2  1  0.40884607  0.79318171  0.92771901  1
  Si  Si3  1  0.28482561  0.05715851  0.25000000  1
  Si  Si4  1  0.63485449  0.21979130  0.02241861  1
  Si  Si5  1  0.18905171  0.37267976  0.50701856  1
  Si  Si6  1  0.52822174  0.58092976  0.25000000  1
  Si  Si7  1  0.40884607  0.79318171  0.57228099  1
  Si  Si8  1  0.63485449  0.21979130  0.47758139  1
  Si  Si9  1  0.88938453  0.32885459  0.75000000  1
  Ni  Ni10  1  0.02663454  0.97126791  0.02047210  1
  Ni  Ni11  1  0.02663454  0.97126791  0.47952790  1
  Ni  Ni12  1  0.78204980  0.60020089  -0.00001495  1
  Ni  Ni13  1  0.09189498  0.66679893  0.75000000  1
  Ni  Ni14  1  0.68526346  0.93690256  0.25000000  1
  Ni  Ni15  1  0.24633829  0.10466217  0.75000000  1
  Ni  Ni16  1  0.92955072  0.31406537  0.25000000  1
  Ni  Ni17  1  0.49165055  0.43267923  0.75000000  1
  Ni  Ni18  1  0.78204980  0.60020089  0.50001495  1
  Ni  Ni19  1  0.70400841  0.98232870  0.75000000  1
