# generated using pymatgen
data_TaTi7N8
_symmetry_space_group_name_H-M   'P 1'
_cell_length_a   6.03528057
_cell_length_b   6.03528058
_cell_length_c   8.57758445
_cell_angle_alpha   89.99655189
_cell_angle_beta   90.00344807
_cell_angle_gamma   90.01515927
_symmetry_Int_Tables_number   1
_chemical_formula_structural   TaTi7N8
_chemical_formula_sum   'Ta2 Ti14 N16'
_cell_volume   312.43517026
_cell_formula_units_Z   2
loop_
 _symmetry_equiv_pos_site_id
 _symmetry_equiv_pos_as_xyz
  1  'x, y, z'
loop_
 _atom_site_type_symbol
 _atom_site_label
 _atom_site_symmetry_multiplicity
 _atom_site_fract_x
 _atom_site_fract_y
 _atom_site_fract_z
 _atom_site_occupancy
  Ta  Ta0  1  0.50117125  0.49882875  0.50109486  1
  Ta  Ta1  1  0.24882875  0.75117125  0.24890514  1
  N  N2  1  0.75319826  0.75161566  0.50015744  1
  N  N3  1  0.75190335  0.24809665  0.50075839  1
  N  N4  1  0.24674021  0.75325979  0.50290257  1
  N  N5  1  0.24838434  0.24680174  0.50015744  1
  N  N6  1  0.50325979  0.49674021  0.24709743  1
  N  N7  1  0.50161566  0.00319826  0.24984256  1
  N  N8  1  0.75058735  0.74996731  0.99978925  1
  N  N9  1  0.74983522  0.25016478  0.99919337  1
  N  N10  1  0.99680174  0.49838434  0.24984256  1
  N  N11  1  0.99809665  0.00190335  0.24924161  1
  N  N12  1  0.24905503  0.75094497  0.99785580  1
  N  N13  1  0.25003269  0.24941265  0.99978925  1
  N  N14  1  0.50094497  0.49905503  0.75214420  1
  N  N15  1  0.49996731  0.00058735  0.75021075  1
  N  N16  1  0.99941265  0.50003269  0.75021075  1
  N  N17  1  0.00016478  -0.00016478  0.75080663  1
  Ti  Ti18  1  0.75279990  0.24720010  0.75171775  1
  Ti  Ti19  1  0.75182262  0.75287817  0.75156518  1
  Ti  Ti20  1  0.24712183  0.24817738  0.75156518  1
  Ti  Ti21  1  0.24868635  0.75131365  0.75173477  1
  Ti  Ti22  1  0.50351559  0.00142918  0.50205615  1
  Ti  Ti23  1  0.75401078  0.24598922  0.24830357  1
  Ti  Ti24  1  0.75142918  0.75351559  0.24794385  1
  Ti  Ti25  1  0.99598922  0.00401078  0.50169643  1
  Ti  Ti26  1  0.99857082  0.49648441  0.50205615  1
  Ti  Ti27  1  0.24648441  0.24857082  0.24794385  1
  Ti  Ti28  1  0.50287817  0.00182262  0.99843482  1
  Ti  Ti29  1  0.50131365  0.49868635  0.99826523  1
  Ti  Ti30  1  0.99720010  0.00279990  0.99828225  1
  Ti  Ti31  1  0.99817738  0.49712183  0.99843482  1
