# generated using pymatgen
data_FeNi
_symmetry_space_group_name_H-M   'P 1'
_cell_length_a   5.60636038
_cell_length_b   5.68626125
_cell_length_c   7.12599600
_cell_angle_alpha   90.11827775
_cell_angle_beta   90.04885333
_cell_angle_gamma   89.57024245
_symmetry_Int_Tables_number   1
_chemical_formula_structural   FeNi
_chemical_formula_sum   'Fe10 Ni10'
_cell_volume   227.16431016
_cell_formula_units_Z   10
loop_
 _symmetry_equiv_pos_site_id
 _symmetry_equiv_pos_as_xyz
  1  'x, y, z'
loop_
 _atom_site_type_symbol
 _atom_site_label
 _atom_site_symmetry_multiplicity
 _atom_site_fract_x
 _atom_site_fract_y
 _atom_site_fract_z
 _atom_site_occupancy
  Fe  Fe0  1  0.10055108  0.29982132  0.74802746  1
  Fe  Fe1  1  0.09320899  0.29763151  0.25262336  1
  Fe  Fe2  1  0.20148714  0.61037762  0.49504339  1
  Fe  Fe3  1  0.39741650  0.19071073  0.49219464  1
  Fe  Fe4  1  0.49887029  0.50492362  0.75380031  1
  Fe  Fe5  1  0.69630532  0.09660706  0.74776857  1
  Fe  Fe6  1  0.39966474  0.19319852  0.00619952  1
  Fe  Fe7  1  0.50376496  0.50546097  0.24862012  1
  Fe  Fe8  1  0.90707570  0.70438054  0.74950989  1
  Fe  Fe9  1  0.80416232  0.39937212  0.00146517  1
  Ni  Ni10  1  0.99656106  0.00108098  0.50228135  1
  Ni  Ni11  1  0.99936878  0.99885004  0.00078369  1
  Ni  Ni12  1  0.30073015  0.90144569  0.74989058  1
  Ni  Ni13  1  0.20183241  0.60070889  0.00321510  1
  Ni  Ni14  1  0.29793075  0.89859657  0.24851562  1
  Ni  Ni15  1  0.60167432  0.79632851  0.50113729  1
  Ni  Ni16  1  0.69814714  0.09956670  0.24940137  1
  Ni  Ni17  1  0.79862922  0.40074484  0.49894867  1
  Ni  Ni18  1  0.60224653  0.80057503  0.00049597  1
  Ni  Ni19  1  0.90037264  0.69961872  0.25007803  1
