# generated using pymatgen
data_Ti7ReN8
_symmetry_space_group_name_H-M   'P 1'
_cell_length_a   6.02403902
_cell_length_b   6.02403903
_cell_length_c   8.49792171
_cell_angle_alpha   90.33832762
_cell_angle_beta   89.66167244
_cell_angle_gamma   90.49523300
_symmetry_Int_Tables_number   1
_chemical_formula_structural   Ti7ReN8
_chemical_formula_sum   'Ti14 Re2 N16'
_cell_volume   308.35929391
_cell_formula_units_Z   2
loop_
 _symmetry_equiv_pos_site_id
 _symmetry_equiv_pos_as_xyz
  1  'x, y, z'
loop_
 _atom_site_type_symbol
 _atom_site_label
 _atom_site_symmetry_multiplicity
 _atom_site_fract_x
 _atom_site_fract_y
 _atom_site_fract_z
 _atom_site_occupancy
  Re  Re0  1  0.52030434  0.47969566  0.50482909  1
  Re  Re1  1  0.22969566  0.77030434  0.24517091  1
  N  N2  1  0.75117875  0.75383769  0.49884553  1
  N  N3  1  0.76901729  0.23098271  0.50047539  1
  N  N4  1  0.26300776  0.73699224  0.49685416  1
  N  N5  1  0.24616231  0.24882125  0.49884553  1
  N  N6  1  0.48699224  0.51300776  0.25314584  1
  N  N7  1  0.50383769  0.00117875  0.25115447  1
  N  N8  1  0.75091503  0.75045318  0.00031405  1
  N  N9  1  0.75008101  0.24991899  0.00093589  1
  N  N10  1  0.99882125  0.49616231  0.25115447  1
  N  N11  1  0.98098271  0.01901729  0.24952461  1
  N  N12  1  0.25014864  0.74985136  0.99422091  1
  N  N13  1  0.24954682  0.24908497  0.00031405  1
  N  N14  1  0.49985136  0.50014864  0.75577909  1
  N  N15  1  0.50045318  0.00091503  0.74968595  1
  N  N16  1  0.99908497  0.49954682  0.74968595  1
  N  N17  1  -0.00008101  0.00008101  0.74906411  1
  Ti  Ti18  1  0.74958770  0.25041230  0.74633460  1
  Ti  Ti19  1  0.75113106  0.75114432  0.75100262  1
  Ti  Ti20  1  0.24885568  0.24886894  0.75100262  1
  Ti  Ti21  1  0.24726038  0.75273962  0.74935065  1
  Ti  Ti22  1  0.50331190  0.00975675  0.50289341  1
  Ti  Ti23  1  0.73667727  0.26332273  0.25498734  1
  Ti  Ti24  1  0.75975675  0.75331190  0.24710659  1
  Ti  Ti25  1  0.01332273  0.98667727  0.49501266  1
  Ti  Ti26  1  0.99024325  0.49668810  0.50289341  1
  Ti  Ti27  1  0.24668810  0.24024325  0.24710659  1
  Ti  Ti28  1  0.50114432  0.00113106  0.99899738  1
  Ti  Ti29  1  0.50273962  0.49726038  0.00064935  1
  Ti  Ti30  1  0.00041230  0.99958770  0.00366540  1
  Ti  Ti31  1  0.99886894  0.49885568  0.99899738  1
