# generated using pymatgen
data_Ti7OsN8
_symmetry_space_group_name_H-M   'P 1'
_cell_length_a   6.02537636
_cell_length_b   6.02537636
_cell_length_c   8.50961744
_cell_angle_alpha   90.52613410
_cell_angle_beta   89.47386584
_cell_angle_gamma   90.16479104
_symmetry_Int_Tables_number   1
_chemical_formula_structural   Ti7OsN8
_chemical_formula_sum   'Ti14 Os2 N16'
_cell_volume   308.91577074
_cell_formula_units_Z   2
loop_
 _symmetry_equiv_pos_site_id
 _symmetry_equiv_pos_as_xyz
  1  'x, y, z'
loop_
 _atom_site_type_symbol
 _atom_site_label
 _atom_site_symmetry_multiplicity
 _atom_site_fract_x
 _atom_site_fract_y
 _atom_site_fract_z
 _atom_site_occupancy
  Os  Os0  1  0.51745113  0.48254887  0.50080824  1
  Os  Os1  1  0.23254887  0.76745113  0.24919176  1
  N  N2  1  0.75420945  0.75220354  0.49904959  1
  N  N3  1  0.76792722  0.23207278  0.50024440  1
  N  N4  1  0.26245846  0.73754154  0.49682268  1
  N  N5  1  0.24779646  0.24579055  0.49904959  1
  N  N6  1  0.48754154  0.51245846  0.25317732  1
  N  N7  1  0.50220354  0.00420945  0.25095041  1
  N  N8  1  0.74941151  0.74998027  0.00025329  1
  N  N9  1  0.74867780  0.25132220  0.00308978  1
  N  N10  1  0.99579055  0.49779646  0.25095041  1
  N  N11  1  0.98207278  0.01792722  0.24975560  1
  N  N12  1  0.24843367  0.75156633  0.99556240  1
  N  N13  1  0.25001973  0.25058849  0.00025329  1
  N  N14  1  0.50156633  0.49843367  0.75443760  1
  N  N15  1  0.49998027  0.99941151  0.74974671  1
  N  N16  1  0.00058849  0.50001973  0.74974671  1
  N  N17  1  0.00132220  0.99867780  0.74691022  1
  Ti  Ti18  1  0.75075162  0.24924838  0.74909616  1
  Ti  Ti19  1  0.75399521  0.75320499  0.75392162  1
  Ti  Ti20  1  0.24679501  0.24600479  0.75392162  1
  Ti  Ti21  1  0.24985210  0.75014790  0.74946021  1
  Ti  Ti22  1  0.50776138  0.00830022  0.50504815  1
  Ti  Ti23  1  0.73697483  0.26302517  0.25679617  1
  Ti  Ti24  1  0.75830022  0.75776138  0.24495185  1
  Ti  Ti25  1  0.01302517  0.98697483  0.49320383  1
  Ti  Ti26  1  0.99169978  0.49223862  0.50504815  1
  Ti  Ti27  1  0.24223862  0.24169978  0.24495185  1
  Ti  Ti28  1  0.50320499  0.00399521  0.99607838  1
  Ti  Ti29  1  0.50014790  0.49985210  0.00053979  1
  Ti  Ti30  1  0.99924838  0.00075162  0.00090384  1
  Ti  Ti31  1  0.99600479  0.49679501  0.99607838  1
