# generated using pymatgen
data_Ti7SiN8
_symmetry_space_group_name_H-M   'P 1'
_cell_length_a   5.97738706
_cell_length_b   5.97738707
_cell_length_c   8.42297529
_cell_angle_alpha   89.47363281
_cell_angle_beta   90.52636717
_cell_angle_gamma   89.95862567
_symmetry_Int_Tables_number   1
_chemical_formula_structural   Ti7SiN8
_chemical_formula_sum   'Ti14 Si2 N16'
_cell_volume   300.92030256
_cell_formula_units_Z   2
loop_
 _symmetry_equiv_pos_site_id
 _symmetry_equiv_pos_as_xyz
  1  'x, y, z'
loop_
 _atom_site_type_symbol
 _atom_site_label
 _atom_site_symmetry_multiplicity
 _atom_site_fract_x
 _atom_site_fract_y
 _atom_site_fract_z
 _atom_site_occupancy
  Si  Si0  1  0.49367616  0.50632384  0.49890781  1
  Si  Si1  1  0.25632384  0.74367616  0.25109219  1
  N  N2  1  0.73160466  0.73339881  0.49983385  1
  N  N3  1  0.72750882  0.27249118  0.49818922  1
  N  N4  1  0.26419761  0.73580239  0.48388713  1
  N  N5  1  0.26660119  0.26839534  0.49983385  1
  N  N6  1  0.48580239  0.51419761  0.26611287  1
  N  N7  1  0.48339881  0.98160466  0.25016615  1
  N  N8  1  0.74929589  0.74726030  0.00031812  1
  N  N9  1  0.74941919  0.25058081  0.00059375  1
  N  N10  1  0.01839534  0.51660119  0.25016615  1
  N  N11  1  0.02249118  0.97750882  0.25181078  1
  N  N12  1  0.25343693  0.74656307  0.02123573  1
  N  N13  1  0.25273970  0.25070411  0.00031812  1
  N  N14  1  0.49656307  0.50343693  0.72876427  1
  N  N15  1  0.49726030  0.99929589  0.74968188  1
  N  N16  1  0.00070411  0.50273970  0.74968188  1
  N  N17  1  0.00058081  0.99941919  0.74940625  1
  Ti  Ti18  1  0.75396272  0.24603728  0.74996898  1
  Ti  Ti19  1  0.75417529  0.75549172  0.75154515  1
  Ti  Ti20  1  0.24450828  0.24582471  0.75154515  1
  Ti  Ti21  1  0.24581533  0.75418467  0.75323573  1
  Ti  Ti22  1  0.50985159  0.00679347  0.50097996  1
  Ti  Ti23  1  0.75866090  0.24133910  0.25043633  1
  Ti  Ti24  1  0.75679347  0.75985159  0.24902004  1
  Ti  Ti25  1  0.99133910  0.00866090  0.49956367  1
  Ti  Ti26  1  0.99320653  0.49014841  0.50097996  1
  Ti  Ti27  1  0.24014841  0.24320653  0.24902004  1
  Ti  Ti28  1  0.50549172  0.00417529  0.99845485  1
  Ti  Ti29  1  0.50418467  0.49581533  0.99676427  1
  Ti  Ti30  1  0.99603728  0.00396272  0.00003102  1
  Ti  Ti31  1  0.99582471  0.49450828  0.99845485  1
