# generated using pymatgen
data_Ti7NiN8
_symmetry_space_group_name_H-M   'P 1'
_cell_length_a   6.00964663
_cell_length_b   6.00964663
_cell_length_c   8.56328630
_cell_angle_alpha   89.63647200
_cell_angle_beta   90.36352802
_cell_angle_gamma   90.68670383
_symmetry_Int_Tables_number   1
_chemical_formula_structural   Ti7NiN8
_chemical_formula_sum   'Ti14 Ni2 N16'
_cell_volume   309.23587163
_cell_formula_units_Z   2
loop_
 _symmetry_equiv_pos_site_id
 _symmetry_equiv_pos_as_xyz
  1  'x, y, z'
loop_
 _atom_site_type_symbol
 _atom_site_label
 _atom_site_symmetry_multiplicity
 _atom_site_fract_x
 _atom_site_fract_y
 _atom_site_fract_z
 _atom_site_occupancy
  Ni  Ni0  1  0.54071056  0.45928944  0.45177357  1
  Ni  Ni1  1  0.20928944  0.79071056  0.29822643  1
  N  N2  1  0.75024931  0.75595220  0.50128887  1
  N  N3  1  0.76120941  0.23879059  0.50368111  1
  N  N4  1  0.24349321  0.75650679  0.51658393  1
  N  N5  1  0.24404780  0.24975069  0.50128887  1
  N  N6  1  0.50650679  0.49349321  0.23341607  1
  N  N7  1  0.50595220  0.00024931  0.24871113  1
  N  N8  1  0.75211007  0.74918353  0.00172916  1
  N  N9  1  0.75081581  0.24918419  -0.00002922  1
  N  N10  1  -0.00024931  0.49404780  0.24871113  1
  N  N11  1  0.98879059  0.01120941  0.24631889  1
  N  N12  1  0.25235895  0.74764105  0.98881354  1
  N  N13  1  0.25081647  0.24788993  0.00172916  1
  N  N14  1  0.49764105  0.50235895  0.76118646  1
  N  N15  1  0.49918353  0.00211007  0.74827084  1
  N  N16  1  0.99788993  0.50081647  0.74827084  1
  N  N17  1  0.99918419  0.00081581  0.75002922  1
  Ti  Ti18  1  0.74409203  0.25590797  0.75447828  1
  Ti  Ti19  1  0.74708824  0.74903018  0.74785405  1
  Ti  Ti20  1  0.25096982  0.25291176  0.74785405  1
  Ti  Ti21  1  0.25383795  0.74616205  0.74837003  1
  Ti  Ti22  1  0.49647680  0.99472957  0.49823291  1
  Ti  Ti23  1  0.75214850  0.24785150  0.24663935  1
  Ti  Ti24  1  0.74472957  0.74647680  0.25176709  1
  Ti  Ti25  1  0.99785150  0.00214850  0.50336065  1
  Ti  Ti26  1  0.00527043  0.50352320  0.49823291  1
  Ti  Ti27  1  0.25352320  0.25527043  0.25176709  1
  Ti  Ti28  1  0.49903018  0.99708824  0.00214595  1
  Ti  Ti29  1  0.49616205  0.50383795  0.00162997  1
  Ti  Ti30  1  0.00590797  0.99409203  -0.00447828  1
  Ti  Ti31  1  0.00291176  0.50096982  0.00214595  1
