# generated using pymatgen
data_Ti7NbN8
_symmetry_space_group_name_H-M   'P 1'
_cell_length_a   6.03347886
_cell_length_b   6.03347887
_cell_length_c   8.57152235
_cell_angle_alpha   89.95255673
_cell_angle_beta   90.04744331
_cell_angle_gamma   90.00753048
_symmetry_Int_Tables_number   1
_chemical_formula_structural   Ti7NbN8
_chemical_formula_sum   'Ti14 Nb2 N16'
_cell_volume   312.02777330
_cell_formula_units_Z   2
loop_
 _symmetry_equiv_pos_site_id
 _symmetry_equiv_pos_as_xyz
  1  'x, y, z'
loop_
 _atom_site_type_symbol
 _atom_site_label
 _atom_site_symmetry_multiplicity
 _atom_site_fract_x
 _atom_site_fract_y
 _atom_site_fract_z
 _atom_site_occupancy
  Nb  Nb0  1  0.49906186  0.50093814  0.50084084  1
  Nb  Nb1  1  0.25093829  0.74906171  0.24915943  1
  N  N2  1  0.75476452  0.75389094  0.49952715  1
  N  N3  1  0.75304206  0.24695794  0.50058268  1
  N  N4  1  0.24409434  0.75590566  0.50488457  1
  N  N5  1  0.24610906  0.24523548  0.49952715  1
  N  N6  1  0.50590567  0.49409433  0.24511569  1
  N  N7  1  0.50389095  0.00476456  0.25047283  1
  N  N8  1  0.75095060  0.75025517  0.00018230  1
  N  N9  1  0.75043661  0.24956339  0.99885401  1
  N  N10  1  0.99523544  0.49610905  0.25047283  1
  N  N11  1  0.99695788  0.00304212  0.24941750  1
  N  N12  1  0.24936592  0.75063408  0.99631115  1
  N  N13  1  0.24974483  0.24904940  0.00018230  1
  N  N14  1  0.50063407  0.49936593  0.75368862  1
  N  N15  1  0.50025518  0.00095056  0.74981769  1
  N  N16  1  0.99904944  0.49974482  0.74981769  1
  N  N17  1  0.99956343  0.00043657  0.75114582  1
  Ti  Ti18  1  0.75170623  0.24829377  0.75153286  1
  Ti  Ti19  1  0.74995139  0.75128250  0.75116892  1
  Ti  Ti20  1  0.24871750  0.25004861  0.75116892  1
  Ti  Ti21  1  0.24926236  0.75073764  0.75165421  1
  Ti  Ti22  1  0.50136323  -0.00038029  0.50179663  1
  Ti  Ti23  1  0.75233154  0.24766846  0.24808277  1
  Ti  Ti24  1  0.74961969  0.75136304  0.24820338  1
  Ti  Ti25  1  0.99766843  0.00233157  0.50191723  1
  Ti  Ti26  1  0.00038029  0.49863677  0.50179663  1
  Ti  Ti27  1  0.24863696  0.25038031  0.24820338  1
  Ti  Ti28  1  0.50128256  -0.00004852  0.99883100  1
  Ti  Ti29  1  0.50073770  0.49926230  0.99834576  1
  Ti  Ti30  1  0.99829346  0.00170654  0.99846705  1
  Ti  Ti31  1  0.00004852  0.49871744  0.99883100  1
