# generated using pymatgen
data_TaNi
_symmetry_space_group_name_H-M   'P 1'
_cell_length_a   6.21062374
_cell_length_b   5.80446965
_cell_length_c   8.11410561
_cell_angle_alpha   90.00000000
_cell_angle_beta   90.00000000
_cell_angle_gamma   86.48512189
_symmetry_Int_Tables_number   1
_chemical_formula_structural   TaNi
_chemical_formula_sum   'Ta10 Ni10'
_cell_volume   291.95821797
_cell_formula_units_Z   10
loop_
 _symmetry_equiv_pos_site_id
 _symmetry_equiv_pos_as_xyz
  1  'x, y, z'
loop_
 _atom_site_type_symbol
 _atom_site_label
 _atom_site_symmetry_multiplicity
 _atom_site_fract_x
 _atom_site_fract_y
 _atom_site_fract_z
 _atom_site_occupancy
  Ta  Ta0  1  0.17942878  0.38071398  0.98080189  1
  Ta  Ta1  1  0.06833105  0.69056586  0.25000000  1
  Ta  Ta2  1  0.39645359  0.80230737  0.97344529  1
  Ta  Ta3  1  0.30720247  0.09727978  0.25000000  1
  Ta  Ta4  1  0.62886441  0.20631146  0.00178839  1
  Ta  Ta5  1  0.17942878  0.38071398  0.51919811  1
  Ta  Ta6  1  0.51527314  0.54558785  0.25000000  1
  Ta  Ta7  1  0.39645359  0.80230737  0.52655471  1
  Ta  Ta8  1  0.62886441  0.20631146  0.49821161  1
  Ta  Ta9  1  0.88503763  0.29654706  0.75000000  1
  Ni  Ni10  1  0.00213384  0.97603744  0.00197748  1
  Ni  Ni11  1  0.00213384  0.97603744  0.49802252  1
  Ni  Ni12  1  0.79393966  0.61337710  0.99478870  1
  Ni  Ni13  1  0.08861998  0.71191057  0.75000000  1
  Ni  Ni14  1  0.71177794  0.92378525  0.25000000  1
  Ni  Ni15  1  0.32301844  0.10537241  0.75000000  1
  Ni  Ni16  1  0.90738853  0.29692021  0.25000000  1
  Ni  Ni17  1  0.48463235  0.49149880  0.75000000  1
  Ni  Ni18  1  0.79393966  0.61337710  0.50521130  1
  Ni  Ni19  1  0.70707785  0.88303757  0.75000000  1
