# generated using pymatgen
data_HfTiC2
_symmetry_space_group_name_H-M   'P 1'
_cell_length_a   11.00278406
_cell_length_b   11.00079645
_cell_length_c   5.49429448
_cell_angle_alpha   99.60291201
_cell_angle_beta   99.61111715
_cell_angle_gamma   33.62832152
_symmetry_Int_Tables_number   1
_chemical_formula_structural   HfTiC2
_chemical_formula_sum   'Hf8 Ti8 C16'
_cell_volume   362.65311722
_cell_formula_units_Z   8
loop_
 _symmetry_equiv_pos_site_id
 _symmetry_equiv_pos_as_xyz
  1  'x, y, z'
loop_
 _atom_site_type_symbol
 _atom_site_label
 _atom_site_symmetry_multiplicity
 _atom_site_fract_x
 _atom_site_fract_y
 _atom_site_fract_z
 _atom_site_occupancy
  C  C0  1  0.18328501  0.19414135  0.12204383  1
  C  C1  1  0.68778858  0.18744965  0.12495283  1
  C  C2  1  0.30405752  0.31348089  0.86854980  1
  C  C3  1  0.42804789  0.44669073  0.62512454  1
  C  C4  1  0.81731830  0.31765059  0.87913551  1
  C  C5  1  0.18740811  0.68758454  0.12412243  1
  C  C6  1  0.56483085  0.56536769  0.38296160  1
  C  C7  1  0.94219695  0.43067335  0.62790004  1
  C  C8  1  0.69264237  0.68207439  0.11515234  1
  C  C9  1  0.06468979  0.55492988  0.37760394  1
  C  C10  1  0.31527354  0.81474267  0.86425718  1
  C  C11  1  0.43226766  0.94267652  0.63466173  1
  C  C12  1  0.81477561  0.80527871  0.87565165  1
  C  C13  1  0.55420429  0.06304637  0.36963928  1
  C  C14  1  0.94669235  0.92833315  0.62574102  1
  C  C15  1  0.06487071  0.06558134  0.38290418  1
  Hf  Hf16  1  0.75069445  0.74550005  0.50049456  1
  Hf  Hf17  1  0.87636349  0.87045938  0.24929293  1
  Hf  Hf18  1  0.00357145  0.00006705  0.00049071  1
  Hf  Hf19  1  0.37525317  0.87807082  0.25056099  1
  Hf  Hf20  1  0.75176413  0.25202003  0.50349762  1
  Hf  Hf21  1  0.62215234  0.12421552  0.74824261  1
  Hf  Hf22  1  0.37063831  0.37562656  0.24782991  1
  Hf  Hf23  1  0.49986090  0.50357063  0.00064846  1
  Ti  Ti24  1  0.25122820  0.75113722  0.50235486  1
  Ti  Ti25  1  0.12586695  0.12803632  0.75077137  1
  Ti  Ti26  1  0.49554910  0.00101045  0.99718328  1
  Ti  Ti27  1  0.24615382  0.25111049  0.50100322  1
  Ti  Ti28  1  0.87839102  0.37537582  0.25027761  1
  Ti  Ti29  1  0.00032862  0.49607049  0.99667389  1
  Ti  Ti30  1  0.12443802  0.62292820  0.74922324  1
  Ti  Ti31  1  0.62739646  0.62509916  0.75105284  1
