# generated using pymatgen
data_HfTiC2
_symmetry_space_group_name_H-M   'P 1'
_cell_length_a   10.98278406
_cell_length_b   10.98079645
_cell_length_c   5.47429447
_cell_angle_alpha   99.60291199
_cell_angle_beta   99.61111716
_cell_angle_gamma   33.62832153
_symmetry_Int_Tables_number   1
_chemical_formula_structural   HfTiC2
_chemical_formula_sum   'Hf8 Ti8 C16'
_cell_volume   360.02047904
_cell_formula_units_Z   8
loop_
 _symmetry_equiv_pos_site_id
 _symmetry_equiv_pos_as_xyz
  1  'x, y, z'
loop_
 _atom_site_type_symbol
 _atom_site_label
 _atom_site_symmetry_multiplicity
 _atom_site_fract_x
 _atom_site_fract_y
 _atom_site_fract_z
 _atom_site_occupancy
  C  C0  1  0.18326488  0.19419367  0.12208201  1
  C  C1  1  0.68779601  0.18744983  0.12497349  1
  C  C2  1  0.30397908  0.31349269  0.86841883  1
  C  C3  1  0.42795062  0.44677883  0.62510718  1
  C  C4  1  0.81738276  0.31769743  0.87930188  1
  C  C5  1  0.18741689  0.68759786  0.12414068  1
  C  C6  1  0.56487050  0.56538653  0.38308939  1
  C  C7  1  0.94220166  0.43062554  0.62788984  1
  C  C8  1  0.69267972  0.68203465  0.11499351  1
  C  C9  1  0.06469554  0.55486498  0.37758262  1
  C  C10  1  0.31528312  0.81477202  0.86406122  1
  C  C11  1  0.43223192  0.94272701  0.63476580  1
  C  C12  1  0.81480449  0.80521403  0.87567165  1
  C  C13  1  0.55410747  0.06304095  0.36946348  1
  C  C14  1  0.94677894  0.92823224  0.62576204  1
  C  C15  1  0.06489546  0.06560462  0.38308115  1
  Hf  Hf16  1  0.75065097  0.74548567  0.50041834  1
  Hf  Hf17  1  0.87636649  0.87043677  0.24934124  1
  Hf  Hf18  1  0.00362206  0.00007929  0.00057163  1
  Hf  Hf19  1  0.37526701  0.87807633  0.25048737  1
  Hf  Hf20  1  0.75174993  0.25200969  0.50360168  1
  Hf  Hf21  1  0.62214804  0.12420149  0.74818285  1
  Hf  Hf22  1  0.37061742  0.37563288  0.24775219  1
  Hf  Hf23  1  0.49987287  0.50361747  0.00068379  1
  Ti  Ti24  1  0.25121646  0.75113443  0.50218770  1
  Ti  Ti25  1  0.12584210  0.12807212  0.75087444  1
  Ti  Ti26  1  0.49554833  0.00103738  0.99720996  1
  Ti  Ti27  1  0.24614448  0.25104200  0.50088424  1
  Ti  Ti28  1  0.87839008  0.37539167  0.25043575  1
  Ti  Ti29  1  0.00036161  0.49607683  0.99675617  1
  Ti  Ti30  1  0.12441225  0.62291360  0.74923524  1
  Ti  Ti31  1  0.62745082  0.62507953  0.75099262  1
