# generated using pymatgen
data_HfTiC2
_symmetry_space_group_name_H-M   'P 1'
_cell_length_a   11.01278406
_cell_length_b   11.01079646
_cell_length_c   5.50429448
_cell_angle_alpha   99.60291199
_cell_angle_beta   99.61111714
_cell_angle_gamma   33.62832154
_symmetry_Int_Tables_number   1
_chemical_formula_structural   HfTiC2
_chemical_formula_sum   'Hf8 Ti8 C16'
_cell_volume   363.97393383
_cell_formula_units_Z   8
loop_
 _symmetry_equiv_pos_site_id
 _symmetry_equiv_pos_as_xyz
  1  'x, y, z'
loop_
 _atom_site_type_symbol
 _atom_site_label
 _atom_site_symmetry_multiplicity
 _atom_site_fract_x
 _atom_site_fract_y
 _atom_site_fract_z
 _atom_site_occupancy
  C  C0  1  0.18329485  0.19411643  0.12202920  1
  C  C1  1  0.68778512  0.18744889  0.12494352  1
  C  C2  1  0.30409597  0.31347889  0.86861257  1
  C  C3  1  0.42809262  0.44664999  0.62513159  1
  C  C4  1  0.81728522  0.31762718  0.87905265  1
  C  C5  1  0.18740320  0.68757818  0.12411515  1
  C  C6  1  0.56480523  0.56536158  0.38290123  1
  C  C7  1  0.94219784  0.43069405  0.62790347  1
  C  C8  1  0.69262312  0.68209581  0.11523148  1
  C  C9  1  0.06468722  0.55496450  0.37761866  1
  C  C10  1  0.31526874  0.81472693  0.86435098  1
  C  C11  1  0.43228372  0.94265379  0.63460813  1
  C  C12  1  0.81476394  0.80531006  0.87564173  1
  C  C13  1  0.55425286  0.06304964  0.36972749  1
  C  C14  1  0.94665291  0.92838011  0.62573084  1
  C  C15  1  0.06486030  0.06556546  0.38281878  1
  Hf  Hf16  1  0.75071772  0.74550721  0.50053299  1
  Hf  Hf17  1  0.87636612  0.87046847  0.24927366  1
  Hf  Hf18  1  0.00354773  0.00005578  0.00044826  1
  Hf  Hf19  1  0.37524489  0.87806723  0.25059424  1
  Hf  Hf20  1  0.75177015  0.25202412  0.50345010  1
  Hf  Hf21  1  0.62215395  0.12422610  0.74826844  1
  Hf  Hf22  1  0.37064595  0.37562702  0.24786766  1
  Hf  Hf23  1  0.49985028  0.50354833  0.00062842  1
  Ti  Ti24  1  0.25123453  0.75113793  0.50243650  1
  Ti  Ti25  1  0.12587955  0.12801865  0.75071953  1
  Ti  Ti26  1  0.49554960  0.00099740  0.99716924  1
  Ti  Ti27  1  0.24615911  0.25114431  0.50106081  1
  Ti  Ti28  1  0.87839488  0.37536556  0.25020166  1
  Ti  Ti29  1  0.00031303  0.49606826  0.99663410  1
  Ti  Ti30  1  0.12445163  0.62293264  0.74921398  1
  Ti  Ti31  1  0.62736798  0.62510950  0.75108290  1
