# generated using pymatgen
data_HfTiC2
_symmetry_space_group_name_H-M   'P 1'
_cell_length_a   10.99278406
_cell_length_b   10.99079645
_cell_length_c   5.48429448
_cell_angle_alpha   99.60291197
_cell_angle_beta   99.61111716
_cell_angle_gamma   33.62832154
_symmetry_Int_Tables_number   1
_chemical_formula_structural   HfTiC2
_chemical_formula_sum   'Hf8 Ti8 C16'
_cell_volume   361.33530025
_cell_formula_units_Z   8
loop_
 _symmetry_equiv_pos_site_id
 _symmetry_equiv_pos_as_xyz
  1  'x, y, z'
loop_
 _atom_site_type_symbol
 _atom_site_label
 _atom_site_symmetry_multiplicity
 _atom_site_fract_x
 _atom_site_fract_y
 _atom_site_fract_z
 _atom_site_occupancy
  C  C0  1  0.18327580  0.19416715  0.12206449  1
  C  C1  1  0.68779215  0.18744945  0.12496332  1
  C  C2  1  0.30401809  0.31348804  0.86848447  1
  C  C3  1  0.42799811  0.44673619  0.62511526  1
  C  C4  1  0.81735013  0.31767378  0.87921817  1
  C  C5  1  0.18741255  0.68759148  0.12413349  1
  C  C6  1  0.56484768  0.56537900  0.38302641  1
  C  C7  1  0.94219985  0.43064872  0.62789411  1
  C  C8  1  0.69266019  0.68205559  0.11507360  1
  C  C9  1  0.06469283  0.55489835  0.37759462  1
  C  C10  1  0.31527796  0.81475729  0.86415834  1
  C  C11  1  0.43224958  0.94270221  0.63471290  1
  C  C12  1  0.81479111  0.80524625  0.87566225  1
  C  C13  1  0.55415585  0.06304431  0.36955178  1
  C  C14  1  0.94673718  0.92828113  0.62575032  1
  C  C15  1  0.06488489  0.06558985  0.38299337  1
  Hf  Hf16  1  0.75067312  0.74549295  0.50045689  1
  Hf  Hf17  1  0.87636507  0.87044950  0.24931931  1
  Hf  Hf18  1  0.00359498  0.00007251  0.00052913  1
  Hf  Hf19  1  0.37525985  0.87807360  0.25052322  1
  Hf  Hf20  1  0.75175554  0.25201399  0.50354942  1
  Hf  Hf21  1  0.62215060  0.12421047  0.74821252  1
  Hf  Hf22  1  0.37062928  0.37562954  0.24779101  1
  Hf  Hf23  1  0.49986664  0.50359211  0.00066444  1
  Ti  Ti24  1  0.25122197  0.75113547  0.50226961  1
  Ti  Ti25  1  0.12585514  0.12805324  0.75082226  1
  Ti  Ti26  1  0.49554844  0.00102446  0.99719785  1
  Ti  Ti27  1  0.24615038  0.25107540  0.50094303  1
  Ti  Ti28  1  0.87839119  0.37538327  0.25035787  1
  Ti  Ti29  1  0.00034517  0.49607417  0.99671628  1
  Ti  Ti30  1  0.12442569  0.62292084  0.74922844  1
  Ti  Ti31  1  0.62742295  0.62508971  0.75102184  1
