# generated using pymatgen
data_TiNi
_symmetry_space_group_name_H-M   'P 1'
_cell_length_a   6.05318975
_cell_length_b   5.80463828
_cell_length_c   7.78317665
_cell_angle_alpha   89.70634997
_cell_angle_beta   91.78535733
_cell_angle_gamma   91.10150626
_symmetry_Int_Tables_number   1
_chemical_formula_structural   TiNi
_chemical_formula_sum   'Ti10 Ni10'
_cell_volume   273.28811354
_cell_formula_units_Z   10
loop_
 _symmetry_equiv_pos_site_id
 _symmetry_equiv_pos_as_xyz
  1  'x, y, z'
loop_
 _atom_site_type_symbol
 _atom_site_label
 _atom_site_symmetry_multiplicity
 _atom_site_fract_x
 _atom_site_fract_y
 _atom_site_fract_z
 _atom_site_occupancy
  Ti  Ti0  1  0.09591624  0.28025275  0.71938513  1
  Ti  Ti1  1  0.06075334  0.28003630  0.26849276  1
  Ti  Ti2  1  0.20593767  0.63759208  0.48510431  1
  Ti  Ti3  1  0.41296302  0.17317494  0.47683676  1
  Ti  Ti4  1  0.49516871  0.52250464  0.76530427  1
  Ti  Ti5  1  0.69029361  0.08937206  0.76084735  1
  Ti  Ti6  1  0.37743231  0.17578639  0.01677685  1
  Ti  Ti7  1  0.52620668  0.54233674  0.24688510  1
  Ti  Ti8  1  0.93195862  0.70524580  0.74816752  1
  Ti  Ti9  1  0.83047450  0.40788798  0.00943671  1
  Ni  Ni10  1  0.97474463  0.99907281  0.50652401  1
  Ni  Ni11  1  0.99066393  0.98093306  0.00753647  1
  Ni  Ni12  1  0.30732406  0.91423565  0.74801834  1
  Ni  Ni13  1  0.22230018  0.59610235  0.00314650  1
  Ni  Ni14  1  0.28580580  0.89094210  0.24077971  1
  Ni  Ni15  1  0.60648966  0.78699139  0.50811332  1
  Ni  Ni16  1  0.68222821  0.09291704  0.24569361  1
  Ni  Ni17  1  0.78641635  0.40496889  0.49073857  1
  Ni  Ni18  1  0.60826212  0.80887269  0.00011830  1
  Ni  Ni19  1  0.90866034  0.71077435  0.25209445  1
