# generated using pymatgen
data_TiNi
_symmetry_space_group_name_H-M   'P 1'
_cell_length_a   5.84264757
_cell_length_b   8.04182085
_cell_length_c   9.69548866
_cell_angle_alpha   90.00000000
_cell_angle_beta   104.22313153
_cell_angle_gamma   90.00000000
_symmetry_Int_Tables_number   1
_chemical_formula_structural   TiNi
_chemical_formula_sum   'Ti16 Ni16'
_cell_volume   441.58337548
_cell_formula_units_Z   16
loop_
 _symmetry_equiv_pos_site_id
 _symmetry_equiv_pos_as_xyz
  1  'x, y, z'
loop_
 _atom_site_type_symbol
 _atom_site_label
 _atom_site_symmetry_multiplicity
 _atom_site_fract_x
 _atom_site_fract_y
 _atom_site_fract_z
 _atom_site_occupancy
  Ti  Ti0  1  0.18769630  0.12500000  0.10728870  1
  Ti  Ti1  1  0.31230369  0.37500000  0.39271130  1
  Ti  Ti2  1  0.18769630  0.12500000  0.60728870  1
  Ti  Ti3  1  0.31230369  0.37500000  0.89271130  1
  Ti  Ti4  1  0.18769630  0.62500000  0.10728870  1
  Ti  Ti5  1  0.31230369  0.87500000  0.39271130  1
  Ti  Ti6  1  0.18769630  0.62500000  0.60728870  1
  Ti  Ti7  1  0.31230369  0.87500000  0.89271130  1
  Ti  Ti8  1  0.68769631  0.12500000  0.10728870  1
  Ti  Ti9  1  0.81230369  0.37500000  0.39271130  1
  Ti  Ti10  1  0.68769631  0.12500000  0.60728870  1
  Ti  Ti11  1  0.81230369  0.37500000  0.89271130  1
  Ti  Ti12  1  0.68769631  0.62500000  0.10728870  1
  Ti  Ti13  1  0.81230369  0.87500000  0.39271130  1
  Ti  Ti14  1  0.68769631  0.62500000  0.60728870  1
  Ti  Ti15  1  0.81230369  0.87500000  0.89271130  1
  Ni  Ni16  1  0.03559239  0.12500000  0.33535680  1
  Ni  Ni17  1  0.46440760  0.37500000  0.16464320  1
  Ni  Ni18  1  0.03559239  0.12500000  0.83535680  1
  Ni  Ni19  1  0.46440760  0.37500000  0.66464320  1
  Ni  Ni20  1  0.03559239  0.62500000  0.33535680  1
  Ni  Ni21  1  0.46440760  0.87500000  0.16464320  1
  Ni  Ni22  1  0.03559239  0.62500000  0.83535680  1
  Ni  Ni23  1  0.46440760  0.87500000  0.66464320  1
  Ni  Ni24  1  0.53559239  0.12500000  0.33535680  1
  Ni  Ni25  1  0.96440761  0.37500000  0.16464320  1
  Ni  Ni26  1  0.53559239  0.12500000  0.83535680  1
  Ni  Ni27  1  0.96440761  0.37500000  0.66464320  1
  Ni  Ni28  1  0.53559239  0.62500000  0.33535680  1
  Ni  Ni29  1  0.96440761  0.87500000  0.16464320  1
  Ni  Ni30  1  0.53559239  0.62500000  0.83535680  1
  Ni  Ni31  1  0.96440761  0.87500000  0.66464320  1
