# generated using pymatgen
data_SiNi
_symmetry_space_group_name_H-M   'P 1'
_cell_length_a   3.34967735
_cell_length_b   5.19141248
_cell_length_c   5.62238954
_cell_angle_alpha   90.00000000
_cell_angle_beta   90.00000000
_cell_angle_gamma   90.00000000
_symmetry_Int_Tables_number   1
_chemical_formula_structural   SiNi
_chemical_formula_sum   'Si4 Ni4'
_cell_volume   97.77086225
_cell_formula_units_Z   4
loop_
 _symmetry_equiv_pos_site_id
 _symmetry_equiv_pos_as_xyz
  1  'x, y, z'
loop_
 _atom_site_type_symbol
 _atom_site_label
 _atom_site_symmetry_multiplicity
 _atom_site_fract_x
 _atom_site_fract_y
 _atom_site_fract_z
 _atom_site_occupancy
  Si  Si0  1  0.75000000  0.82045400  0.58298596  1
  Si  Si1  1  0.25000000  0.17954600  0.41701404  1
  Si  Si2  1  0.75000000  0.32045400  0.91701404  1
  Si  Si3  1  0.25000000  0.67954600  0.08298596  1
  Ni  Ni4  1  0.25000000  0.50816789  0.68796822  1
  Ni  Ni5  1  0.75000000  0.49183211  0.31203178  1
  Ni  Ni6  1  0.25000000  0.00816789  0.81203178  1
  Ni  Ni7  1  0.75000000  0.99183211  0.18796822  1
