# generated using pymatgen
data_SiNi
_symmetry_space_group_name_H-M   'P 1'
_cell_length_a   6.69935469
_cell_length_b   10.38282497
_cell_length_c   5.62238954
_cell_angle_alpha   90.00000000
_cell_angle_beta   90.00000000
_cell_angle_gamma   90.00000000
_symmetry_Int_Tables_number   1
_chemical_formula_structural   SiNi
_chemical_formula_sum   'Si16 Ni16'
_cell_volume   391.08344880
_cell_formula_units_Z   16
loop_
 _symmetry_equiv_pos_site_id
 _symmetry_equiv_pos_as_xyz
  1  'x, y, z'
loop_
 _atom_site_type_symbol
 _atom_site_label
 _atom_site_symmetry_multiplicity
 _atom_site_fract_x
 _atom_site_fract_y
 _atom_site_fract_z
 _atom_site_occupancy
  Si  Si0  1  0.37500000  0.41026181  0.58299469  1
  Si  Si1  1  0.12500000  0.08973819  0.41700531  1
  Si  Si2  1  0.37500000  0.16026181  0.91700531  1
  Si  Si3  1  0.12500000  0.33973819  0.08299469  1
  Si  Si4  1  0.37500000  0.91026181  0.58299469  1
  Si  Si5  1  0.12500000  0.58973819  0.41700531  1
  Si  Si6  1  0.37500000  0.66026181  0.91700531  1
  Si  Si7  1  0.12500000  0.83973819  0.08299469  1
  Si  Si8  1  0.87500000  0.41026181  0.58299469  1
  Si  Si9  1  0.62500000  0.08973819  0.41700531  1
  Si  Si10  1  0.87500000  0.16026181  0.91700531  1
  Si  Si11  1  0.62500000  0.33973819  0.08299469  1
  Si  Si12  1  0.87500000  0.91026181  0.58299469  1
  Si  Si13  1  0.62500000  0.58973819  0.41700531  1
  Si  Si14  1  0.87500000  0.66026181  0.91700531  1
  Si  Si15  1  0.62500000  0.83973819  0.08299469  1
  Ni  Ni16  1  0.12500000  0.25403004  0.68788725  1
  Ni  Ni17  1  0.37500000  0.24596996  0.31211275  1
  Ni  Ni18  1  0.12500000  0.00403004  0.81211275  1
  Ni  Ni19  1  0.37500000  0.49596996  0.18788725  1
  Ni  Ni20  1  0.12500000  0.75403004  0.68788725  1
  Ni  Ni21  1  0.37500000  0.74596996  0.31211275  1
  Ni  Ni22  1  0.12500000  0.50403004  0.81211275  1
  Ni  Ni23  1  0.37500000  0.99596996  0.18788725  1
  Ni  Ni24  1  0.62500000  0.25403004  0.68788725  1
  Ni  Ni25  1  0.87500000  0.24596996  0.31211275  1
  Ni  Ni26  1  0.62500000  0.00403004  0.81211275  1
  Ni  Ni27  1  0.87500000  0.49596996  0.18788725  1
  Ni  Ni28  1  0.62500000  0.75403004  0.68788725  1
  Ni  Ni29  1  0.87500000  0.74596996  0.31211275  1
  Ni  Ni30  1  0.62500000  0.50403004  0.81211275  1
  Ni  Ni31  1  0.87500000  0.99596996  0.18788725  1
