# generated using pymatgen
data_SiNi2
_symmetry_space_group_name_H-M   'P 1'
_cell_length_a   7.07328364
_cell_length_b   5.03272072
_cell_length_c   3.72605208
_cell_angle_alpha   90.00000000
_cell_angle_beta   90.00000000
_cell_angle_gamma   90.00000000
_symmetry_Int_Tables_number   1
_chemical_formula_structural   SiNi2
_chemical_formula_sum   'Si4 Ni8'
_cell_volume   132.63948452
_cell_formula_units_Z   4
loop_
 _symmetry_equiv_pos_site_id
 _symmetry_equiv_pos_as_xyz
  1  'x, y, z'
loop_
 _atom_site_type_symbol
 _atom_site_label
 _atom_site_symmetry_multiplicity
 _atom_site_fract_x
 _atom_site_fract_y
 _atom_site_fract_z
 _atom_site_occupancy
  Si  Si0  1  0.61446020  0.71328561  0.25000000  1
  Si  Si1  1  0.88553980  0.21328561  0.25000000  1
  Si  Si2  1  0.38553980  0.28671439  0.75000000  1
  Si  Si3  1  0.11446020  0.78671439  0.75000000  1
  Ni  Ni4  1  0.20477798  0.04090832  0.25000000  1
  Ni  Ni5  1  0.29522202  0.54090832  0.25000000  1
  Ni  Ni6  1  0.79522202  0.95909168  0.75000000  1
  Ni  Ni7  1  0.70477798  0.45909168  0.75000000  1
  Ni  Ni8  1  0.56039476  0.16983561  0.25000000  1
  Ni  Ni9  1  0.93960524  0.66983561  0.25000000  1
  Ni  Ni10  1  0.43960524  0.83016439  0.75000000  1
  Ni  Ni11  1  0.06039476  0.33016439  0.75000000  1
