# generated using pymatgen
data_Pr2AlC
_symmetry_space_group_name_H-M   'P 1'
_cell_length_a   3.71418117
_cell_length_b   3.71418117
_cell_length_c   16.61199515
_cell_angle_alpha   90.00000000
_cell_angle_beta   90.00000000
_cell_angle_gamma   119.99999991
_symmetry_Int_Tables_number   1
_chemical_formula_structural   Pr2AlC
_chemical_formula_sum   'Pr4 Al2 C2'
_cell_volume   198.46256292
_cell_formula_units_Z   2
loop_
 _symmetry_equiv_pos_site_id
 _symmetry_equiv_pos_as_xyz
  1  'x, y, z'
loop_
 _atom_site_type_symbol
 _atom_site_label
 _atom_site_symmetry_multiplicity
 _atom_site_fract_x
 _atom_site_fract_y
 _atom_site_fract_z
 _atom_site_occupancy
  C  C0  1  0.00000000  0.00000000  0.00000000  1
  C  C1  1  0.00000000  0.00000000  0.50000000  1
  Al  Al2  1  0.33333333  0.66666667  0.25000000  1
  Al  Al3  1  0.66666667  0.33333333  0.75000000  1
  Pr  Pr4  1  0.33333333  0.66666667  0.58781033  1
  Pr  Pr5  1  0.66666667  0.33333333  0.08781033  1
  Pr  Pr6  1  0.66666667  0.33333333  0.41218967  1
  Pr  Pr7  1  0.33333333  0.66666667  0.91218967  1
