# generated using pymatgen
data_Pm2AlC
_symmetry_space_group_name_H-M   'P 1'
_cell_length_a   3.65341645
_cell_length_b   3.65341644
_cell_length_c   16.40782544
_cell_angle_alpha   90.00000000
_cell_angle_beta   90.00000000
_cell_angle_gamma   119.99999998
_symmetry_Int_Tables_number   1
_chemical_formula_structural   Pm2AlC
_chemical_formula_sum   'Pm4 Al2 C2'
_cell_volume   189.66186538
_cell_formula_units_Z   2
loop_
 _symmetry_equiv_pos_site_id
 _symmetry_equiv_pos_as_xyz
  1  'x, y, z'
loop_
 _atom_site_type_symbol
 _atom_site_label
 _atom_site_symmetry_multiplicity
 _atom_site_fract_x
 _atom_site_fract_y
 _atom_site_fract_z
 _atom_site_occupancy
  C  C0  1  -0.00000000  0.00000000  0.00000000  1
  C  C1  1  -0.00000000  0.00000000  0.50000000  1
  Al  Al2  1  0.33333333  0.66666667  0.25000000  1
  Al  Al3  1  0.66666667  0.33333333  0.75000000  1
  Pm  Pm4  1  0.33333333  0.66666667  0.58710159  1
  Pm  Pm5  1  0.66666667  0.33333333  0.08710159  1
  Pm  Pm6  1  0.66666667  0.33333333  0.41289841  1
  Pm  Pm7  1  0.33333333  0.66666667  0.91289841  1
