# generated using pymatgen
data_Lu2AlC
_symmetry_space_group_name_H-M   'P 1'
_cell_length_a   3.47945803
_cell_length_b   3.47945804
_cell_length_c   15.49719507
_cell_angle_alpha   90.00000000
_cell_angle_beta   90.00000000
_cell_angle_gamma   120.00000003
_symmetry_Int_Tables_number   1
_chemical_formula_structural   Lu2AlC
_chemical_formula_sum   'Lu4 Al2 C2'
_cell_volume   162.48262873
_cell_formula_units_Z   2
loop_
 _symmetry_equiv_pos_site_id
 _symmetry_equiv_pos_as_xyz
  1  'x, y, z'
loop_
 _atom_site_type_symbol
 _atom_site_label
 _atom_site_symmetry_multiplicity
 _atom_site_fract_x
 _atom_site_fract_y
 _atom_site_fract_z
 _atom_site_occupancy
  C  C0  1  0.00000000  -0.00000000  -0.00000000  1
  C  C1  1  0.00000000  -0.00000000  0.50000000  1
  Al  Al2  1  0.33333333  0.66666667  0.25000000  1
  Al  Al3  1  0.66666667  0.33333333  0.75000000  1
  Lu  Lu4  1  0.33333333  0.66666667  0.58439604  1
  Lu  Lu5  1  0.66666667  0.33333333  0.08439604  1
  Lu  Lu6  1  0.66666667  0.33333333  0.41560396  1
  Lu  Lu7  1  0.33333333  0.66666667  0.91560396  1
