# generated using pymatgen
data_Yb2AlC
_symmetry_space_group_name_H-M   'P 1'
_cell_length_a   3.45040191
_cell_length_b   3.45040191
_cell_length_c   17.27059737
_cell_angle_alpha   90.00000000
_cell_angle_beta   90.00000000
_cell_angle_gamma   120.00000005
_symmetry_Int_Tables_number   1
_chemical_formula_structural   Yb2AlC
_chemical_formula_sum   'Yb4 Al2 C2'
_cell_volume   178.06450746
_cell_formula_units_Z   2
loop_
 _symmetry_equiv_pos_site_id
 _symmetry_equiv_pos_as_xyz
  1  'x, y, z'
loop_
 _atom_site_type_symbol
 _atom_site_label
 _atom_site_symmetry_multiplicity
 _atom_site_fract_x
 _atom_site_fract_y
 _atom_site_fract_z
 _atom_site_occupancy
  C  C0  1  0.00000000  0.00000000  0.00000000  1
  C  C1  1  0.00000000  0.00000000  0.50000000  1
  Al  Al2  1  0.33333333  0.66666667  0.25000000  1
  Al  Al3  1  0.66666667  0.33333333  0.75000000  1
  Yb  Yb4  1  0.33333333  0.66666667  0.58484820  1
  Yb  Yb5  1  0.66666667  0.33333333  0.08484820  1
  Yb  Yb6  1  0.66666667  0.33333333  0.41515180  1
  Yb  Yb7  1  0.33333333  0.66666667  0.91515180  1
