# generated using pymatgen
data_AlRe2C
_symmetry_space_group_name_H-M   'P 1'
_cell_length_a   2.88194109
_cell_length_b   2.88194110
_cell_length_c   14.05259181
_cell_angle_alpha   90.00000000
_cell_angle_beta   90.00000000
_cell_angle_gamma   120.00000005
_symmetry_Int_Tables_number   1
_chemical_formula_structural   AlRe2C
_chemical_formula_sum   'Al2 Re4 C2'
_cell_volume   101.07814474
_cell_formula_units_Z   2
loop_
 _symmetry_equiv_pos_site_id
 _symmetry_equiv_pos_as_xyz
  1  'x, y, z'
loop_
 _atom_site_type_symbol
 _atom_site_label
 _atom_site_symmetry_multiplicity
 _atom_site_fract_x
 _atom_site_fract_y
 _atom_site_fract_z
 _atom_site_occupancy
  C  C0  1  0.00000000  -0.00000000  0.00000000  1
  C  C1  1  0.00000000  -0.00000000  0.50000000  1
  Al  Al2  1  0.33333333  0.66666667  0.25000000  1
  Al  Al3  1  0.66666667  0.33333333  0.75000000  1
  Re  Re4  1  0.33333333  0.66666667  0.59688094  1
  Re  Re5  1  0.66666667  0.33333333  0.09688094  1
  Re  Re6  1  0.66666667  0.33333333  0.40311906  1
  Re  Re7  1  0.33333333  0.66666667  0.90311906  1
