# generated using pymatgen
data_Tm2AlC
_symmetry_space_group_name_H-M   'P 1'
_cell_length_a   3.51712561
_cell_length_b   3.51712560
_cell_length_c   15.63653622
_cell_angle_alpha   90.00000000
_cell_angle_beta   90.00000000
_cell_angle_gamma   119.99999998
_symmetry_Int_Tables_number   1
_chemical_formula_structural   Tm2AlC
_chemical_formula_sum   'Tm4 Al2 C2'
_cell_volume   167.51239337
_cell_formula_units_Z   2
loop_
 _symmetry_equiv_pos_site_id
 _symmetry_equiv_pos_as_xyz
  1  'x, y, z'
loop_
 _atom_site_type_symbol
 _atom_site_label
 _atom_site_symmetry_multiplicity
 _atom_site_fract_x
 _atom_site_fract_y
 _atom_site_fract_z
 _atom_site_occupancy
  C  C0  1  -0.00000000  0.00000000  -0.00000000  1
  C  C1  1  -0.00000000  0.00000000  0.50000000  1
  Al  Al2  1  0.33333333  0.66666667  0.25000000  1
  Al  Al3  1  0.66666667  0.33333333  0.75000000  1
  Tm  Tm4  1  0.33333333  0.66666667  0.58507291  1
  Tm  Tm5  1  0.66666667  0.33333333  0.08507291  1
  Tm  Tm6  1  0.66666667  0.33333333  0.41492709  1
  Tm  Tm7  1  0.33333333  0.66666667  0.91492709  1
