# generated using pymatgen
data_TaAl7N8
_symmetry_space_group_name_H-M   'P 1'
_cell_length_a   5.84744257
_cell_length_b   5.84744257
_cell_length_c   8.28968107
_cell_angle_alpha   89.52547944
_cell_angle_beta   90.47452058
_cell_angle_gamma   89.94332644
_symmetry_Int_Tables_number   1
_chemical_formula_structural   TaAl7N8
_chemical_formula_sum   'Ta2 Al14 N16'
_cell_volume   283.42602170
_cell_formula_units_Z   2
loop_
 _symmetry_equiv_pos_site_id
 _symmetry_equiv_pos_as_xyz
  1  'x, y, z'
loop_
 _atom_site_type_symbol
 _atom_site_label
 _atom_site_symmetry_multiplicity
 _atom_site_fract_x
 _atom_site_fract_y
 _atom_site_fract_z
 _atom_site_occupancy
  Ta  Ta0  1  0.48545826  0.51454174  0.48606287  1
  Ta  Ta1  1  0.26454174  0.73545826  0.26393713  1
  N  N2  1  0.75801529  0.76013166  0.50025202  1
  N  N3  1  0.75553845  0.24446155  0.50335027  1
  N  N4  1  0.23062494  0.76937506  0.52158864  1
  N  N5  1  0.23986834  0.24198471  0.50025202  1
  N  N6  1  0.51937506  0.48062494  0.22841136  1
  N  N7  1  0.51013166  0.00801529  0.24974798  1
  N  N8  1  0.75235777  0.75088747  0.99930748  1
  N  N9  1  0.75327238  0.24672762  0.99564498  1
  N  N10  1  0.99198471  0.48986834  0.24974798  1
  N  N11  1  0.99446155  0.00553845  0.24664973  1
  N  N12  1  0.25039330  0.74960670  0.99274479  1
  N  N13  1  0.24911253  0.24764223  0.99930748  1
  N  N14  1  0.49960670  0.50039330  0.75725521  1
  N  N15  1  0.50088747  0.00235777  0.75069252  1
  N  N16  1  0.99764223  0.49911253  0.75069252  1
  N  N17  1  0.99672762  0.00327238  0.75435502  1
  Al  Al18  1  0.74965801  0.25034199  0.75261373  1
  Al  Al19  1  0.75147203  0.75223803  0.75357577  1
  Al  Al20  1  0.24776197  0.24852797  0.75357577  1
  Al  Al21  1  0.24711191  0.75288809  0.75512775  1
  Al  Al22  1  0.50408441  0.00705243  0.50508657  1
  Al  Al23  1  0.75455210  0.24544790  0.24526418  1
  Al  Al24  1  0.75705243  0.75408441  0.24491343  1
  Al  Al25  1  0.99544790  0.00455210  0.50473582  1
  Al  Al26  1  0.99294757  0.49591559  0.50508657  1
  Al  Al27  1  0.24591559  0.24294757  0.24491343  1
  Al  Al28  1  0.50223803  0.00147203  0.99642423  1
  Al  Al29  1  0.50288809  0.49711191  0.99487225  1
  Al  Al30  1  0.00034199  0.99965801  0.99738627  1
  Al  Al31  1  0.99852797  0.49776197  0.99642423  1
