# generated using pymatgen
data_TiAl7N8
_symmetry_space_group_name_H-M   'P 1'
_cell_length_a   5.80398762
_cell_length_b   5.80398762
_cell_length_c   8.21414900
_cell_angle_alpha   89.76036014
_cell_angle_beta   90.23963982
_cell_angle_gamma   90.00686445
_symmetry_Int_Tables_number   1
_chemical_formula_structural   TiAl7N8
_chemical_formula_sum   'Ti2 Al14 N16'
_cell_volume   276.69921792
_cell_formula_units_Z   2
loop_
 _symmetry_equiv_pos_site_id
 _symmetry_equiv_pos_as_xyz
  1  'x, y, z'
loop_
 _atom_site_type_symbol
 _atom_site_label
 _atom_site_symmetry_multiplicity
 _atom_site_fract_x
 _atom_site_fract_y
 _atom_site_fract_z
 _atom_site_occupancy
  Ti  Ti0  1  0.49160859  0.50839138  0.49243115  1
  Ti  Ti1  1  0.25839141  0.74160862  0.25756885  1
  N  N2  1  0.75430941  0.75659704  0.49916314  1
  N  N3  1  0.75436444  0.24563556  0.50192764  1
  N  N4  1  0.23949647  0.76050353  0.51128444  1
  N  N5  1  0.24340297  0.24569062  0.49916316  1
  N  N6  1  0.51050353  0.48949647  0.23871556  1
  N  N7  1  0.50659703  0.00430938  0.25083684  1
  N  N8  1  0.75130250  0.75035064  0.00003525  1
  N  N9  1  0.75174620  0.24825380  0.99781273  1
  N  N10  1  0.99569059  0.49340296  0.25083686  1
  N  N11  1  0.99563556  0.00436444  0.24807236  1
  N  N12  1  0.24981129  0.75018872  0.99420337  1
  N  N13  1  0.24964935  0.24869750  0.00003525  1
  N  N14  1  0.50018871  0.49981128  0.75579663  1
  N  N15  1  0.50035065  0.00130250  0.74996475  1
  N  N16  1  0.99869750  0.49964936  0.74996475  1
  N  N17  1  0.99825380  0.00174620  0.75218727  1
  Al  Al18  1  0.74958568  0.25041432  0.75128019  1
  Al  Al19  1  0.75010496  0.75081727  0.75151660  1
  Al  Al20  1  0.24918273  0.24989505  0.75151660  1
  Al  Al21  1  0.24859130  0.75140870  0.75233179  1
  Al  Al22  1  0.50240520  0.00544664  0.50269915  1
  Al  Al23  1  0.75218773  0.24781227  0.24792380  1
  Al  Al24  1  0.75544664  0.75240520  0.24730085  1
  Al  Al25  1  0.99781227  0.00218773  0.50207620  1
  Al  Al26  1  0.99455336  0.49759480  0.50269915  1
  Al  Al27  1  0.24759480  0.24455336  0.24730085  1
  Al  Al28  1  0.50081727  0.00010495  0.99848340  1
  Al  Al29  1  0.50140870  0.49859130  0.99766821  1
  Al  Al30  1  0.00041432  0.99958568  0.99871981  1
  Al  Al31  1  0.99989504  0.49918273  0.99848340  1
