# generated using pymatgen
data_Al7NiN8
_symmetry_space_group_name_H-M   'P 1'
_cell_length_a   5.76795629
_cell_length_b   5.76795631
_cell_length_c   8.12963674
_cell_angle_alpha   90.05695884
_cell_angle_beta   89.94304030
_cell_angle_gamma   90.73399470
_symmetry_Int_Tables_number   1
_chemical_formula_structural   Al7NiN8
_chemical_formula_sum   'Al14 Ni2 N16'
_cell_volume   270.44502817
_cell_formula_units_Z   2
loop_
 _symmetry_equiv_pos_site_id
 _symmetry_equiv_pos_as_xyz
  1  'x, y, z'
loop_
 _atom_site_type_symbol
 _atom_site_label
 _atom_site_symmetry_multiplicity
 _atom_site_fract_x
 _atom_site_fract_y
 _atom_site_fract_z
 _atom_site_occupancy
  Ni  Ni0  1  0.49997094  0.50002909  0.49895112  1
  Ni  Ni1  1  0.25002906  0.74997091  0.25104888  1
  N  N2  1  0.74767223  0.74818358  0.49965355  1
  N  N3  1  0.75847525  0.24152474  0.50059027  1
  N  N4  1  0.24065588  0.75934413  0.49997698  1
  N  N5  1  0.25181640  0.25232776  0.49965356  1
  N  N6  1  0.50934412  0.49065587  0.25002302  1
  N  N7  1  0.49818360  0.99767224  0.25034644  1
  N  N8  1  0.74946788  0.74952104  0.00042568  1
  N  N9  1  0.74913057  0.25086945  0.99970978  1
  N  N10  1  0.00232777  0.50181642  0.25034645  1
  N  N11  1  0.99152475  0.00847526  0.24940973  1
  N  N12  1  0.25047716  0.74952282  0.99867154  1
  N  N13  1  0.25047896  0.25053213  0.00042568  1
  N  N14  1  0.49952284  0.50047718  0.75132846  1
  N  N15  1  0.49952104  0.99946787  0.74957432  1
  N  N16  1  0.00053212  0.50047896  0.74957432  1
  N  N17  1  0.00086943  0.99913055  0.75029022  1
  Al  Al18  1  0.74971057  0.25028938  0.74821381  1
  Al  Al19  1  0.74903421  0.74882913  0.74890583  1
  Al  Al20  1  0.25117091  0.25096576  0.74890585  1
  Al  Al21  1  0.25066684  0.74933320  0.74823037  1
  Al  Al22  1  0.49867383  0.99843829  0.49890400  1
  Al  Al23  1  0.74996005  0.25003997  0.25232923  1
  Al  Al24  1  0.74843834  0.74867382  0.25109601  1
  Al  Al25  1  0.00003995  -0.00003997  0.49767077  1
  Al  Al26  1  0.00156166  0.50132618  0.49890399  1
  Al  Al27  1  0.25132617  0.25156171  0.25109600  1
  Al  Al28  1  0.49882909  0.99903424  0.00109415  1
  Al  Al29  1  0.49933316  0.50066680  0.00176963  1
  Al  Al30  1  0.00028943  0.99971062  0.00178619  1
  Al  Al31  1  0.00096579  0.50117087  0.00109417  1
