# generated using pymatgen
data_Al7MoN8
_symmetry_space_group_name_H-M   'P 1'
_cell_length_a   5.83695200
_cell_length_b   5.83695200
_cell_length_c   8.20267369
_cell_angle_alpha   89.46650415
_cell_angle_beta   90.53349580
_cell_angle_gamma   89.30228463
_symmetry_Int_Tables_number   1
_chemical_formula_structural   Al7MoN8
_chemical_formula_sum   'Al14 Mo2 N16'
_cell_volume   279.41991626
_cell_formula_units_Z   2
loop_
 _symmetry_equiv_pos_site_id
 _symmetry_equiv_pos_as_xyz
  1  'x, y, z'
loop_
 _atom_site_type_symbol
 _atom_site_label
 _atom_site_symmetry_multiplicity
 _atom_site_fract_x
 _atom_site_fract_y
 _atom_site_fract_z
 _atom_site_occupancy
  Mo  Mo0  1  0.48096943  0.51903057  0.48240534  1
  Mo  Mo1  1  0.26903057  0.73096943  0.26759466  1
  N  N2  1  0.75767713  0.76125543  0.49936644  1
  N  N3  1  0.75195593  0.24804407  0.50231620  1
  N  N4  1  0.23306430  0.76693570  0.51634890  1
  N  N5  1  0.23874457  0.24232287  0.49936644  1
  N  N6  1  0.51693570  0.48306430  0.23365110  1
  N  N7  1  0.51125543  0.00767713  0.25063356  1
  N  N8  1  0.75192235  0.74992508  0.99979690  1
  N  N9  1  0.75234225  0.24765775  0.99690233  1
  N  N10  1  0.99232287  0.48874457  0.25063356  1
  N  N11  1  0.99804407  0.00195593  0.24768380  1
  N  N12  1  0.25122053  0.74877947  0.99587939  1
  N  N13  1  0.25007492  0.24807765  0.99979690  1
  N  N14  1  0.49877947  0.50122053  0.75412061  1
  N  N15  1  0.49992508  0.00192235  0.75020310  1
  N  N16  1  0.99807765  0.50007492  0.75020310  1
  N  N17  1  0.99765775  0.00234225  0.75309767  1
  Al  Al18  1  0.74874460  0.25125540  0.75166267  1
  Al  Al19  1  0.74998084  0.75222742  0.75106429  1
  Al  Al20  1  0.24777258  0.25001916  0.75106429  1
  Al  Al21  1  0.24807531  0.75192469  0.75464979  1
  Al  Al22  1  0.50341285  0.00951276  0.50271074  1
  Al  Al23  1  0.75525378  0.24474622  0.24729301  1
  Al  Al24  1  0.75951276  0.75341285  0.24728926  1
  Al  Al25  1  0.99474622  0.00525378  0.50270699  1
  Al  Al26  1  0.99048724  0.49658715  0.50271074  1
  Al  Al27  1  0.24658715  0.24048724  0.24728926  1
  Al  Al28  1  0.50222742  -0.00001916  0.99893571  1
  Al  Al29  1  0.50192469  0.49807531  0.99535021  1
  Al  Al30  1  0.00125540  0.99874460  0.99833733  1
  Al  Al31  1  0.00001916  0.49777258  0.99893571  1
