# generated using pymatgen
data_HfAl7N8
_symmetry_space_group_name_H-M   'P 1'
_cell_length_a   5.87337035
_cell_length_b   5.87337034
_cell_length_c   8.33184227
_cell_angle_alpha   89.78369540
_cell_angle_beta   90.21630463
_cell_angle_gamma   90.57651164
_symmetry_Int_Tables_number   1
_chemical_formula_structural   HfAl7N8
_chemical_formula_sum   'Hf2 Al14 N16'
_cell_volume   287.40061845
_cell_formula_units_Z   2
loop_
 _symmetry_equiv_pos_site_id
 _symmetry_equiv_pos_as_xyz
  1  'x, y, z'
loop_
 _atom_site_type_symbol
 _atom_site_label
 _atom_site_symmetry_multiplicity
 _atom_site_fract_x
 _atom_site_fract_y
 _atom_site_fract_z
 _atom_site_occupancy
  Hf  Hf0  1  0.49395238  0.50604762  0.49415125  1
  Hf  Hf1  1  0.25604762  0.74395238  0.25584875  1
  N  N2  1  0.75952622  0.76008939  0.50046421  1
  N  N3  1  0.76069343  0.23930657  0.50586266  1
  N  N4  1  0.23196945  0.76803055  0.51952262  1
  N  N5  1  0.23991061  0.24047378  0.50046421  1
  N  N6  1  0.51803055  0.48196945  0.23047738  1
  N  N7  1  0.51008939  0.00952622  0.24953579  1
  N  N8  1  0.75121011  0.75062273  0.99920697  1
  N  N9  1  0.75360028  0.24639972  0.99465733  1
  N  N10  1  0.99047378  0.48991061  0.24953579  1
  N  N11  1  0.98930657  0.01069343  0.24413734  1
  N  N12  1  0.24771637  0.75228363  0.98843129  1
  N  N13  1  0.24937727  0.24878989  0.99920697  1
  N  N14  1  0.50228363  0.49771637  0.76156871  1
  N  N15  1  0.50062273  0.00121011  0.75079303  1
  N  N16  1  0.99878989  0.49937727  0.75079303  1
  N  N17  1  0.99639972  0.00360028  0.75534267  1
  Al  Al18  1  0.75114097  0.24885903  0.75338971  1
  Al  Al19  1  0.75231072  0.75268882  0.75543181  1
  Al  Al20  1  0.24731118  0.24768928  0.75543181  1
  Al  Al21  1  0.24702808  0.75297192  0.75348084  1
  Al  Al22  1  0.50495528  0.00590533  0.50672605  1
  Al  Al23  1  0.75234110  0.24765890  0.24417262  1
  Al  Al24  1  0.75590533  0.75495528  0.24327395  1
  Al  Al25  1  0.99765890  0.00234110  0.50582738  1
  Al  Al26  1  0.99409467  0.49504472  0.50672605  1
  Al  Al27  1  0.24504472  0.24409467  0.24327395  1
  Al  Al28  1  0.50268882  0.00231072  0.99456819  1
  Al  Al29  1  0.50297192  0.49702808  0.99651916  1
  Al  Al30  1  0.99885903  0.00114097  0.99661029  1
  Al  Al31  1  0.99768928  0.49731118  0.99456819  1
