# generated using pymatgen
data_Al7OsN8
_symmetry_space_group_name_H-M   'P 1'
_cell_length_a   5.83043820
_cell_length_b   5.83043819
_cell_length_c   8.18370120
_cell_angle_alpha   89.62299183
_cell_angle_beta   90.37700815
_cell_angle_gamma   89.29019503
_symmetry_Int_Tables_number   1
_chemical_formula_structural   Al7OsN8
_chemical_formula_sum   'Al14 Os2 N16'
_cell_volume   278.16327378
_cell_formula_units_Z   2
loop_
 _symmetry_equiv_pos_site_id
 _symmetry_equiv_pos_as_xyz
  1  'x, y, z'
loop_
 _atom_site_type_symbol
 _atom_site_label
 _atom_site_symmetry_multiplicity
 _atom_site_fract_x
 _atom_site_fract_y
 _atom_site_fract_z
 _atom_site_occupancy
  Os  Os0  1  0.48901115  0.51098885  0.48991737  1
  Os  Os1  1  0.26098885  0.73901115  0.26008263  1
  N  N2  1  0.75940351  0.76337464  0.49908443  1
  N  N3  1  0.75033367  0.24966633  0.50361357  1
  N  N4  1  0.23534982  0.76465018  0.51444317  1
  N  N5  1  0.23662536  0.24059649  0.49908443  1
  N  N6  1  0.51465018  0.48534982  0.23555683  1
  N  N7  1  0.51337464  0.00940351  0.25091557  1
  N  N8  1  0.75076106  0.74957192  0.99934437  1
  N  N9  1  0.75162632  0.24837368  0.99729383  1
  N  N10  1  0.99059649  0.48662536  0.25091557  1
  N  N11  1  0.99966633  0.00033367  0.24638643  1
  N  N12  1  0.25054788  0.74945212  0.99738225  1
  N  N13  1  0.25042808  0.24923894  0.99934437  1
  N  N14  1  0.49945212  0.50054788  0.75261775  1
  N  N15  1  0.49957192  0.00076106  0.75065563  1
  N  N16  1  0.99923894  0.50042808  0.75065563  1
  N  N17  1  0.99837368  0.00162632  0.75270617  1
  Al  Al18  1  0.75061787  0.24938213  0.75179861  1
  Al  Al19  1  0.74962186  0.75121390  0.74934607  1
  Al  Al20  1  0.24878610  0.25037814  0.74934607  1
  Al  Al21  1  0.24638208  0.75361792  0.75420667  1
  Al  Al22  1  0.49966548  0.00540940  0.50130675  1
  Al  Al23  1  0.75561410  0.24438590  0.24715920  1
  Al  Al24  1  0.75540940  0.74966548  0.24869325  1
  Al  Al25  1  0.99438590  0.00561410  0.50284080  1
  Al  Al26  1  0.99459060  0.50033452  0.50130675  1
  Al  Al27  1  0.25033452  0.24459060  0.24869325  1
  Al  Al28  1  0.50121390  0.99962186  0.00065393  1
  Al  Al29  1  0.50361792  0.49638208  0.99579333  1
  Al  Al30  1  0.99938213  0.00061787  0.99820139  1
  Al  Al31  1  0.00037814  0.49878610  0.00065393  1
