# generated using pymatgen
data_Al7FeN8
_symmetry_space_group_name_H-M   'P 1'
_cell_length_a   5.74718144
_cell_length_b   5.74718145
_cell_length_c   8.11066568
_cell_angle_alpha   89.88392000
_cell_angle_beta   90.11608035
_cell_angle_gamma   89.73769718
_symmetry_Int_Tables_number   1
_chemical_formula_structural   Al7FeN8
_chemical_formula_sum   'Al14 Fe2 N16'
_cell_volume   267.89214233
_cell_formula_units_Z   2
loop_
 _symmetry_equiv_pos_site_id
 _symmetry_equiv_pos_as_xyz
  1  'x, y, z'
loop_
 _atom_site_type_symbol
 _atom_site_label
 _atom_site_symmetry_multiplicity
 _atom_site_fract_x
 _atom_site_fract_y
 _atom_site_fract_z
 _atom_site_occupancy
  Fe  Fe0  1  0.49343799  0.50656201  0.49362409  1
  Fe  Fe1  1  0.25656201  0.74343799  0.25637591  1
  N  N2  1  0.75120035  0.75303683  0.49912608  1
  N  N3  1  0.74883100  0.25116901  0.49950809  1
  N  N4  1  0.24759635  0.75240365  0.50098277  1
  N  N5  1  0.24696318  0.24879965  0.49912608  1
  N  N6  1  0.50240365  0.49759635  0.24901723  1
  N  N7  1  0.50303682  0.00120035  0.25087392  1
  N  N8  1  0.74977004  0.74944180  0.00026819  1
  N  N9  1  0.74989916  0.25010084  0.00084168  1
  N  N10  1  0.99879965  0.49696317  0.25087392  1
  N  N11  1  0.00116900  0.99883099  0.25049191  1
  N  N12  1  0.25063486  0.74936514  0.00068565  1
  N  N13  1  0.25055820  0.25022995  0.00026819  1
  N  N14  1  0.49936514  0.50063486  0.74931435  1
  N  N15  1  0.49944180  0.99977005  0.74973181  1
  N  N16  1  0.00022996  0.50055820  0.74973181  1
  N  N17  1  0.00010084  0.99989916  0.74915832  1
  Al  Al18  1  0.74848910  0.25151090  0.74846610  1
  Al  Al19  1  0.74884480  0.74914923  0.74808184  1
  Al  Al20  1  0.25085078  0.25115520  0.74808184  1
  Al  Al21  1  0.25068094  0.74931906  0.74968867  1
  Al  Al22  1  0.49991877  0.00149534  0.49881346  1
  Al  Al23  1  0.75048572  0.24951428  0.25142812  1
  Al  Al24  1  0.75149532  0.74991879  0.25118656  1
  Al  Al25  1  0.99951428  0.00048572  0.49857188  1
  Al  Al26  1  0.99850468  0.50008121  0.49881344  1
  Al  Al27  1  0.25008123  0.24850466  0.25118654  1
  Al  Al28  1  0.49914922  0.99884480  0.00191816  1
  Al  Al29  1  0.49931906  0.50068094  0.00031133  1
  Al  Al30  1  0.00151090  0.99848910  0.00153390  1
  Al  Al31  1  0.00115520  0.50085077  0.00191816  1
