# generated using pymatgen
data_Al7CoN8
_symmetry_space_group_name_H-M   'P 1'
_cell_length_a   5.73659851
_cell_length_b   5.73659851
_cell_length_c   8.11607220
_cell_angle_alpha   90.08251214
_cell_angle_beta   89.91748794
_cell_angle_gamma   90.00225693
_symmetry_Int_Tables_number   1
_chemical_formula_structural   Al7CoN8
_chemical_formula_sum   'Al14 Co2 N16'
_cell_volume   267.08771511
_cell_formula_units_Z   2
loop_
 _symmetry_equiv_pos_site_id
 _symmetry_equiv_pos_as_xyz
  1  'x, y, z'
loop_
 _atom_site_type_symbol
 _atom_site_label
 _atom_site_symmetry_multiplicity
 _atom_site_fract_x
 _atom_site_fract_y
 _atom_site_fract_z
 _atom_site_occupancy
  Co  Co0  1  0.50043489  0.49956511  0.50002261  1
  Co  Co1  1  0.24956511  0.75043489  0.24997739  1
  N  N2  1  0.75089310  0.75009242  0.49983546  1
  N  N3  1  0.75057165  0.24942835  0.49855544  1
  N  N4  1  0.25174467  0.74825533  0.49763598  1
  N  N5  1  0.24990758  0.24910690  0.49983546  1
  N  N6  1  0.49825533  0.50174467  0.25236402  1
  N  N7  1  0.50009242  0.00089310  0.25016454  1
  N  N8  1  0.74945532  0.74977060  0.00055351  1
  N  N9  1  0.74931439  0.25068561  0.00154858  1
  N  N10  1  0.99910690  0.49990758  0.25016454  1
  N  N11  1  0.99942835  0.00057165  0.25144456  1
  N  N12  1  0.25007198  0.74992802  0.99948762  1
  N  N13  1  0.25022940  0.25054468  0.00055351  1
  N  N14  1  0.49992802  0.50007198  0.75051238  1
  N  N15  1  0.49977060  0.99945532  0.74944649  1
  N  N16  1  0.00054468  0.50022940  0.74944649  1
  N  N17  1  0.00068561  0.99931439  0.74845142  1
  Al  Al18  1  0.74887818  0.25112182  0.74818894  1
  Al  Al19  1  0.74901512  0.74867863  0.74833132  1
  Al  Al20  1  0.25132137  0.25098488  0.74833132  1
  Al  Al21  1  0.25152578  0.74847422  0.74840456  1
  Al  Al22  1  0.49911619  0.99798298  0.49803444  1
  Al  Al23  1  0.74856311  0.25143689  0.25166722  1
  Al  Al24  1  0.74798298  0.74911619  0.25196556  1
  Al  Al25  1  0.00143689  0.99856311  0.49833278  1
  Al  Al26  1  0.00201702  0.50088381  0.49803444  1
  Al  Al27  1  0.25088381  0.25201702  0.25196556  1
  Al  Al28  1  0.49867863  0.99901512  0.00166868  1
  Al  Al29  1  0.49847422  0.50152578  0.00159544  1
  Al  Al30  1  0.00112182  0.99887818  0.00181106  1
  Al  Al31  1  0.00098488  0.50132137  0.00166868  1
