# generated using pymatgen
data_Ti7ReN8
_symmetry_space_group_name_H-M   'P 1'
_cell_length_a   7.07935572
_cell_length_b   6.96466980
_cell_length_c   8.40989108
_cell_angle_alpha   89.99812919
_cell_angle_beta   90.60632454
_cell_angle_gamma   119.46912086
_symmetry_Int_Tables_number   1
_chemical_formula_structural   Ti7ReN8
_chemical_formula_sum   'Ti14 Re2 N16'
_cell_volume   360.97885950
_cell_formula_units_Z   2
loop_
 _symmetry_equiv_pos_site_id
 _symmetry_equiv_pos_as_xyz
  1  'x, y, z'
loop_
 _atom_site_type_symbol
 _atom_site_label
 _atom_site_symmetry_multiplicity
 _atom_site_fract_x
 _atom_site_fract_y
 _atom_site_fract_z
 _atom_site_occupancy
  Ti  Ti0  1  0.17253630  0.33593687  0.22598567  1
  Ti  Ti1  1  0.33530088  0.16790548  0.96899106  1
  Ti  Ti2  1  0.16145252  0.33272899  0.71870130  1
  Ti  Ti3  1  0.33706721  0.16877209  0.47380465  1
  Ti  Ti4  1  0.17277014  0.83711062  0.22593591  1
  Ti  Ti5  1  0.34252041  0.67132120  0.97762957  1
  Ti  Ti6  1  0.16171859  0.82923276  0.71872667  1
  Ti  Ti7  1  0.66288059  0.33146226  0.21721187  1
  Ti  Ti8  1  0.83824819  0.16720211  0.97230329  1
  Ti  Ti9  1  0.66461616  0.33219889  0.72199118  1
  Ti  Ti10  1  0.82714880  0.16391604  0.46499233  1
  Ti  Ti11  1  0.83855756  0.67084214  0.97226007  1
  Ti  Ti12  1  0.65753008  0.82855480  0.71334629  1
  Ti  Ti13  1  0.82757039  0.66301527  0.46507795  1
  Re  Re14  1  0.30884717  0.65463547  0.48002951  1
  Re  Re15  1  0.69128693  0.84515322  0.21104266  1
  N  N16  1  0.15236416  0.31084524  0.47170804  1
  N  N17  1  0.33869890  0.16964152  0.22125420  1
  N  N18  1  0.16861895  0.33375045  0.97323406  1
  N  N19  1  0.33577888  0.16827580  0.72207907  1
  N  N20  1  0.15270418  0.84215915  0.47173203  1
  N  N21  1  0.34178646  0.67113205  0.22645978  1
  N  N22  1  0.16900477  0.83547541  0.97323779  1
  N  N23  1  0.33103291  0.66565434  0.73082167  1
  N  N24  1  0.66125139  0.33053046  0.46972005  1
  N  N25  1  0.84718806  0.18897337  0.21927907  1
  N  N26  1  0.66404380  0.33180834  0.96889065  1
  N  N27  1  0.83099742  0.16615108  0.71776760  1
  N  N28  1  0.65833851  0.82876997  0.46456552  1
  N  N29  1  0.84774023  0.65801962  0.21925995  1
  N  N30  1  0.66905549  0.83421036  0.96019728  1
  N  N31  1  0.83134397  0.66461461  0.71776334  1
