# generated using pymatgen
data_Ti7MnN8
_symmetry_space_group_name_H-M   'P 1'
_cell_length_a   7.01002718
_cell_length_b   6.93551163
_cell_length_c   8.34949274
_cell_angle_alpha   89.99999995
_cell_angle_beta   89.40697995
_cell_angle_gamma   119.64898585
_symmetry_Int_Tables_number   1
_chemical_formula_structural   Ti7MnN8
_chemical_formula_sum   'Ti14 Mn2 N16'
_cell_volume   352.76331110
_cell_formula_units_Z   2
loop_
 _symmetry_equiv_pos_site_id
 _symmetry_equiv_pos_as_xyz
  1  'x, y, z'
loop_
 _atom_site_type_symbol
 _atom_site_label
 _atom_site_symmetry_multiplicity
 _atom_site_fract_x
 _atom_site_fract_y
 _atom_site_fract_z
 _atom_site_occupancy
  Ti  Ti0  1  0.16578662  0.33289330  0.21985987  1
  Ti  Ti1  1  0.33655552  0.16540162  0.96688923  1
  Ti  Ti2  1  0.16540119  0.33270059  0.72312850  1
  Ti  Ti3  1  0.32793473  0.16055990  0.47739925  1
  Ti  Ti4  1  0.15719178  0.82859588  0.22975379  1
  Ti  Ti5  1  0.33655552  0.67115391  0.96688923  1
  Ti  Ti6  1  0.32793473  0.66737482  0.47739925  1
  Ti  Ti7  1  0.66347715  0.33451104  0.22414259  1
  Ti  Ti8  1  0.83426263  0.16713133  0.97111075  1
  Ti  Ti9  1  0.67207327  0.33938702  0.71350915  1
  Ti  Ti10  1  0.83476495  0.16738248  0.46785738  1
  Ti  Ti11  1  0.66347715  0.82896608  0.22414259  1
  Ti  Ti12  1  0.84268653  0.67134327  0.96127055  1
  Ti  Ti13  1  0.67207327  0.83268624  0.71350915  1
  Mn  Mn14  1  0.17926435  0.83963217  0.72666090  1
  Mn  Mn15  1  0.82059946  0.66029973  0.46436568  1
  N  N16  1  0.16389856  0.33194927  0.47206169  1
  N  N17  1  0.33081758  0.16433640  0.22335263  1
  N  N18  1  0.16599150  0.33299574  0.97101819  1
  N  N19  1  0.33981253  0.17382689  0.72147552  1
  N  N20  1  0.15405102  0.82702550  0.48008041  1
  N  N21  1  0.33081758  0.66648121  0.22335263  1
  N  N22  1  0.16872423  0.83436211  0.97302926  1
  N  N23  1  0.33981253  0.66598566  0.72147552  1
  N  N24  1  0.66021156  0.32612048  0.46952664  1
  N  N25  1  0.83414971  0.16707486  0.22002446  1
  N  N26  1  0.66916293  0.33557135  0.96764773  1
  N  N27  1  0.83620928  0.16810465  0.71891501  1
  N  N28  1  0.66021156  0.83409108  0.46952664  1
  N  N29  1  0.83109150  0.66554575  0.21802196  1
  N  N30  1  0.66916293  0.83359157  0.96764773  1
  N  N31  1  0.84583618  0.67291810  0.71095609  1
