# generated using pymatgen
data_Ti7CrN8
_symmetry_space_group_name_H-M   'P 1'
_cell_length_a   6.97340743
_cell_length_b   6.97340743
_cell_length_c   8.37671628
_cell_angle_alpha   89.99404819
_cell_angle_beta   90.00595179
_cell_angle_gamma   119.69716709
_symmetry_Int_Tables_number   1
_chemical_formula_structural   Ti7CrN8
_chemical_formula_sum   'Ti14 Cr2 N16'
_cell_volume   353.84389948
_cell_formula_units_Z   2
loop_
 _symmetry_equiv_pos_site_id
 _symmetry_equiv_pos_as_xyz
  1  'x, y, z'
loop_
 _atom_site_type_symbol
 _atom_site_label
 _atom_site_symmetry_multiplicity
 _atom_site_fract_x
 _atom_site_fract_y
 _atom_site_fract_z
 _atom_site_occupancy
  Ti  Ti0  1  0.16511902  0.33488098  0.21323594  1
  Ti  Ti1  1  0.33351905  0.16648095  0.97050199  1
  Ti  Ti2  1  0.16510459  0.33489541  0.72776293  1
  Ti  Ti3  1  0.33377892  0.16622108  0.47048561  1
  Ti  Ti4  1  0.16818220  0.83182978  0.21823562  1
  Ti  Ti5  1  0.16816358  0.83184294  0.72269868  1
  Ti  Ti6  1  0.33433792  0.66568611  0.47053113  1
  Ti  Ti7  1  0.66817022  0.33181780  0.21823562  1
  Ti  Ti8  1  0.66815706  0.33183642  0.72269868  1
  Ti  Ti9  1  0.83431389  0.16566208  0.47053113  1
  Ti  Ti10  1  0.66511958  0.83488042  0.21320961  1
  Ti  Ti11  1  0.83354596  0.66645404  0.97050621  1
  Ti  Ti12  1  0.66510616  0.83489384  0.72779888  1
  Ti  Ti13  1  0.83377917  0.66622083  0.47049062  1
  Cr  Cr14  1  0.33204885  0.66784379  0.97053475  1
  Cr  Cr15  1  0.83215621  0.16795115  0.97053475  1
  N  N16  1  0.16693823  0.33306177  0.47056921  1
  N  N17  1  0.33366381  0.16633619  0.21875998  1
  N  N18  1  0.16548366  0.33451634  0.97054642  1
  N  N19  1  0.33362449  0.16637551  0.72216944  1
  N  N20  1  0.16645019  0.83355650  0.47044912  1
  N  N21  1  0.33386927  0.66613635  0.21803565  1
  N  N22  1  0.16579795  0.83423845  0.97044167  1
  N  N23  1  0.33387849  0.66613007  0.72301837  1
  N  N24  1  0.66644350  0.33354981  0.47044912  1
  N  N25  1  0.83386365  0.16613073  0.21803565  1
  N  N26  1  0.66576155  0.33420205  0.97044167  1
  N  N27  1  0.83386993  0.16612151  0.72301837  1
  N  N28  1  0.66695063  0.83304937  0.47057788  1
  N  N29  1  0.83367469  0.66632531  0.21876014  1
  N  N30  1  0.66549188  0.83450812  0.97055384  1
  N  N31  1  0.83363569  0.66636431  0.72218139  1
