# generated using pymatgen
data_Ti7FeN8
_symmetry_space_group_name_H-M   'P 1'
_cell_length_a   7.01342899
_cell_length_b   6.94682585
_cell_length_c   8.34332424
_cell_angle_alpha   90.00209268
_cell_angle_beta   89.36775594
_cell_angle_gamma   119.69600571
_symmetry_Int_Tables_number   1
_chemical_formula_structural   Ti7FeN8
_chemical_formula_sum   'Ti14 Fe2 N16'
_cell_volume   353.08060312
_cell_formula_units_Z   2
loop_
 _symmetry_equiv_pos_site_id
 _symmetry_equiv_pos_as_xyz
  1  'x, y, z'
loop_
 _atom_site_type_symbol
 _atom_site_label
 _atom_site_symmetry_multiplicity
 _atom_site_fract_x
 _atom_site_fract_y
 _atom_site_fract_z
 _atom_site_occupancy
  Ti  Ti0  1  0.15693477  0.32845590  0.23046646  1
  Ti  Ti1  1  0.33588266  0.17036983  0.96638911  1
  Ti  Ti2  1  0.32833833  0.16774904  0.47756787  1
  Ti  Ti3  1  0.16645874  0.83319807  0.22026209  1
  Ti  Ti4  1  0.33589832  0.66550914  0.96639193  1
  Ti  Ti5  1  0.16470613  0.83231132  0.72241915  1
  Ti  Ti6  1  0.32843064  0.66068253  0.47754277  1
  Ti  Ti7  1  0.66407153  0.32968714  0.22456446  1
  Ti  Ti8  1  0.84288492  0.17147287  0.96058359  1
  Ti  Ti9  1  0.67161443  0.33230992  0.71346849  1
  Ti  Ti10  1  0.66409945  0.83437284  0.22455926  1
  Ti  Ti11  1  0.83380621  0.66692221  0.97073129  1
  Ti  Ti12  1  0.67162641  0.83929184  0.71348363  1
  Ti  Ti13  1  0.83534013  0.66768091  0.46852009  1
  Fe  Fe14  1  0.16965427  0.33481250  0.72967497  1
  Fe  Fe15  1  0.83032877  0.16520909  0.46144476  1
  N  N16  1  0.16150806  0.33078039  0.47983316  1
  N  N17  1  0.33014293  0.16738661  0.22320369  1
  N  N18  1  0.17016074  0.33506494  0.97270922  1
  N  N19  1  0.34192965  0.16505934  0.72166419  1
  N  N20  1  0.16601130  0.83298307  0.47208932  1
  N  N21  1  0.33017112  0.66274079  0.22318966  1
  N  N22  1  0.16549587  0.83272009  0.97080220  1
  N  N23  1  0.34198081  0.67685955  0.72167022  1
  N  N24  1  0.65793321  0.33493287  0.46932768  1
  N  N25  1  0.82959173  0.16480093  0.21833766  1
  N  N26  1  0.66982970  0.33277482  0.96777470  1
  N  N27  1  0.83837651  0.16921446  0.71124908  1
  N  N28  1  0.65801731  0.82306839  0.46932370  1
  N  N29  1  0.83480049  0.66740139  0.22012484  1
  N  N30  1  0.66986464  0.83711813  0.96778649  1
  N  N31  1  0.83411021  0.66705910  0.71884433  1
