# generated using pymatgen
data_Ti7NbN8
_symmetry_space_group_name_H-M   'P 1'
_cell_length_a   7.05425314
_cell_length_b   7.04831674
_cell_length_c   8.49446612
_cell_angle_alpha   90.08299345
_cell_angle_beta   90.00105021
_cell_angle_gamma   120.02912121
_symmetry_Int_Tables_number   1
_chemical_formula_structural   Ti7NbN8
_chemical_formula_sum   'Ti14 Nb2 N16'
_cell_volume   365.65796751
_cell_formula_units_Z   2
loop_
 _symmetry_equiv_pos_site_id
 _symmetry_equiv_pos_as_xyz
  1  'x, y, z'
loop_
 _atom_site_type_symbol
 _atom_site_label
 _atom_site_symmetry_multiplicity
 _atom_site_fract_x
 _atom_site_fract_y
 _atom_site_fract_z
 _atom_site_occupancy
  Ti  Ti0  1  0.16912599  0.33309487  0.21936641  1
  Ti  Ti1  1  0.33385018  0.16727667  0.96854093  1
  Ti  Ti2  1  0.16671886  0.33321158  0.72109761  1
  Ti  Ti3  1  0.33216598  0.16407685  0.47236702  1
  Ti  Ti4  1  0.16806941  0.83690635  0.21870504  1
  Ti  Ti5  1  0.33299703  0.66725985  0.96999297  1
  Ti  Ti6  1  0.16646523  0.83362798  0.72231551  1
  Ti  Ti7  1  0.33059530  0.66723734  0.47154288  1
  Ti  Ti8  1  0.66428089  0.33268495  0.21936250  1
  Ti  Ti9  1  0.83377391  0.16678594  0.96946940  1
  Ti  Ti10  1  0.66683832  0.33279909  0.72106683  1
  Ti  Ti11  1  0.83354728  0.66688974  0.96999692  1
  Ti  Ti12  1  0.66599820  0.83230418  0.72156232  1
  Ti  Ti13  1  0.83594666  0.66689531  0.47157256  1
  Nb  Nb14  1  0.83241758  0.16421007  0.47011709  1
  Nb  Nb15  1  0.66725583  0.83484441  0.22094033  1
  N  N16  1  0.17583398  0.33730224  0.47044158  1
  N  N17  1  0.33374949  0.16712874  0.22019696  1
  N  N18  1  0.16920026  0.33471384  0.97011618  1
  N  N19  1  0.33380575  0.16712476  0.72052113  1
  N  N20  1  0.16661142  0.83409899  0.47076344  1
  N  N21  1  0.32367994  0.66310915  0.22055388  1
  N  N22  1  0.16661857  0.83428712  0.97043414  1
  N  N23  1  0.33052152  0.66587353  0.72089396  1
  N  N24  1  0.66185426  0.33682695  0.47042514  1
  N  N25  1  0.83998839  0.17907088  0.21459886  1
  N  N26  1  0.66608479  0.33411665  0.97011254  1
  N  N27  1  0.83413096  0.16720412  0.72495868  1
  N  N28  1  0.65959449  0.81963372  0.47642247  1
  N  N29  1  0.83845751  0.66259165  0.22056188  1
  N  N30  1  0.66543704  0.83140826  0.96609228  1
  N  N31  1  0.83438497  0.66540425  0.72089064  1
