# generated using pymatgen
data_Ti7SiN8
_symmetry_space_group_name_H-M   'P 1'
_cell_length_a   6.92860391
_cell_length_b   6.92699068
_cell_length_c   8.46547759
_cell_angle_alpha   89.73448971
_cell_angle_beta   90.00000000
_cell_angle_gamma   120.00770421
_symmetry_Int_Tables_number   1
_chemical_formula_structural   Ti7SiN8
_chemical_formula_sum   'Ti14 Si2 N16'
_cell_volume   351.82969741
_cell_formula_units_Z   2
loop_
 _symmetry_equiv_pos_site_id
 _symmetry_equiv_pos_as_xyz
  1  'x, y, z'
loop_
 _atom_site_type_symbol
 _atom_site_label
 _atom_site_symmetry_multiplicity
 _atom_site_fract_x
 _atom_site_fract_y
 _atom_site_fract_z
 _atom_site_occupancy
  Ti  Ti0  1  0.16381957  0.32763913  0.21753216  1
  Ti  Ti1  1  0.33615421  0.16077665  0.96694456  1
  Ti  Ti2  1  0.16612908  0.33225815  0.72196950  1
  Ti  Ti3  1  0.33031958  0.16596071  0.47381070  1
  Ti  Ti4  1  0.16992169  0.84180988  0.22313499  1
  Ti  Ti5  1  0.33651548  0.67303097  0.97267398  1
  Ti  Ti6  1  0.16442570  0.83202235  0.71779658  1
  Ti  Ti7  1  0.33335407  0.66670817  0.46894999  1
  Ti  Ti8  1  0.82462242  0.16077665  0.96694456  1
  Ti  Ti9  1  0.66663284  0.33326569  0.71475111  1
  Ti  Ti10  1  0.83564111  0.16596071  0.47381070  1
  Ti  Ti11  1  0.67188820  0.84180988  0.22313499  1
  Ti  Ti12  1  0.66759664  0.83202235  0.71779658  1
  Ti  Ti13  1  0.83692194  0.67384389  0.47189079  1
  Si  Si14  1  0.66777495  0.33554991  0.23784024  1
  Si  Si15  1  0.82927289  0.65854580  0.98374128  1
  N  N16  1  0.16639329  0.33278659  0.46996653  1
  N  N17  1  0.37499345  0.18829455  0.21887019  1
  N  N18  1  0.16573466  0.33146932  0.97025667  1
  N  N19  1  0.33740414  0.16729256  0.72024754  1
  N  N20  1  0.16497677  0.83294635  0.47026834  1
  N  N21  1  0.33383207  0.66766415  0.22022132  1
  N  N22  1  0.12426197  0.81207229  0.97166696  1
  N  N23  1  0.33370527  0.66741056  0.72128561  1
  N  N24  1  0.67003284  0.34006566  0.45840159  1
  N  N25  1  0.81330107  0.18829455  0.21887019  1
  N  N26  1  0.68275821  0.36551642  0.96748769  1
  N  N27  1  0.82988841  0.16729256  0.72024754  1
  N  N28  1  0.66796961  0.83294635  0.47026834  1
  N  N29  1  0.81505674  0.63011349  0.21045503  1
  N  N30  1  0.68781031  0.81207229  0.97166696  1
  N  N31  1  0.83089072  0.66178143  0.72309685  1
