# generated using pymatgen
data_Al7CrN8
_symmetry_space_group_name_H-M   'P 1'
_cell_length_a   5.77648223
_cell_length_b   5.77648226
_cell_length_c   8.17039809
_cell_angle_alpha   90.00995193
_cell_angle_beta   89.99004862
_cell_angle_gamma   90.01488971
_symmetry_Int_Tables_number   1
_chemical_formula_structural   Al7CrN8
_chemical_formula_sum   'Al14 Cr2 N16'
_cell_volume   272.62775961
_cell_formula_units_Z   2
loop_
 _symmetry_equiv_pos_site_id
 _symmetry_equiv_pos_as_xyz
  1  'x, y, z'
loop_
 _atom_site_type_symbol
 _atom_site_label
 _atom_site_symmetry_multiplicity
 _atom_site_fract_x
 _atom_site_fract_y
 _atom_site_fract_z
 _atom_site_occupancy
  Cr  Cr0  1  0.50129398  0.49870605  0.50119856  1
  Cr  Cr1  1  0.24870602  0.75129395  0.24880144  1
  N  N2  1  0.75381665  0.75336859  0.49995630  1
  N  N3  1  0.75354562  0.24645437  0.50047278  1
  N  N4  1  0.24707189  0.75292812  0.50338842  1
  N  N5  1  0.24663142  0.24618335  0.49995631  1
  N  N6  1  0.50292811  0.49707188  0.24661158  1
  N  N7  1  0.50336858  0.00381665  0.25004369  1
  N  N8  1  0.75023687  0.75029382  0.00024235  1
  N  N9  1  0.75014947  0.24985053  0.99934115  1
  N  N10  1  0.99618335  0.49663141  0.25004370  1
  N  N11  1  0.99645438  0.00354563  0.24952722  1
  N  N12  1  0.24986892  0.75013109  0.99609660  1
  N  N13  1  0.24970619  0.24976314  0.00024235  1
  N  N14  1  0.50013108  0.49986891  0.75390340  1
  N  N15  1  0.50029381  0.00023686  0.74975765  1
  N  N16  1  0.99976313  0.49970618  0.74975765  1
  N  N17  1  0.99985053  0.00014947  0.75065885  1
  Al  Al18  1  0.75021814  0.24978184  0.75010186  1
  Al  Al19  1  0.75023362  0.75017213  0.75018414  1
  Al  Al20  1  0.24982788  0.24976637  0.75018416  1
  Al  Al21  1  0.24987561  0.75012440  0.75008545  1
  Al  Al22  1  0.50003050  0.99953253  0.49998488  1
  Al  Al23  1  0.75006754  0.24993248  0.24983838  1
  Al  Al24  1  0.74953256  0.75003048  0.25001512  1
  Al  Al25  1  0.99993246  0.00006752  0.50016162  1
  Al  Al26  1  0.00046744  0.49996952  0.49998488  1
  Al  Al27  1  0.24996950  0.25046747  0.25001512  1
  Al  Al28  1  0.50017212  0.00023363  0.99981584  1
  Al  Al29  1  0.50012439  0.49987560  0.99991455  1
  Al  Al30  1  0.99978186  0.00021816  0.99989814  1
  Al  Al31  1  0.99976638  0.49982787  0.99981586  1
