# generated using pymatgen
data_Ti7VN8
_symmetry_space_group_name_H-M   'P 1'
_cell_length_a   6.99303762
_cell_length_b   6.99238891
_cell_length_c   8.40928655
_cell_angle_alpha   90.00000000
_cell_angle_beta   90.00037780
_cell_angle_gamma   119.99693150
_symmetry_Int_Tables_number   1
_chemical_formula_structural   Ti7VN8
_chemical_formula_sum   'Ti14 V2 N16'
_cell_volume   356.11859456
_cell_formula_units_Z   2
loop_
 _symmetry_equiv_pos_site_id
 _symmetry_equiv_pos_as_xyz
  1  'x, y, z'
loop_
 _atom_site_type_symbol
 _atom_site_label
 _atom_site_symmetry_multiplicity
 _atom_site_fract_x
 _atom_site_fract_y
 _atom_site_fract_z
 _atom_site_occupancy
  Ti  Ti0  1  0.16707306  0.33352049  0.22054971  1
  Ti  Ti1  1  0.33157076  0.16329952  0.97045765  1
  Ti  Ti2  1  0.16701534  0.33349182  0.72055028  1
  Ti  Ti3  1  0.33156798  0.16329687  0.47047248  1
  Ti  Ti4  1  0.33157102  0.66826727  0.97048627  1
  Ti  Ti5  1  0.33156839  0.66826784  0.47050269  1
  Ti  Ti6  1  0.66634345  0.33385486  0.22050188  1
  Ti  Ti7  1  0.83301332  0.16650647  0.97057440  1
  Ti  Ti8  1  0.66632470  0.33383231  0.72049354  1
  Ti  Ti9  1  0.83301808  0.16650886  0.47054976  1
  Ti  Ti10  1  0.66634711  0.83246441  0.22051720  1
  Ti  Ti11  1  0.83718255  0.66859063  0.97043464  1
  Ti  Ti12  1  0.66632768  0.83246713  0.72050879  1
  Ti  Ti13  1  0.83720726  0.66860301  0.47044960  1
  V  V14  1  0.16696646  0.83346873  0.22043864  1
  V  V15  1  0.16693302  0.83345179  0.72047632  1
  N  N16  1  0.16517517  0.33259277  0.47056586  1
  N  N17  1  0.33167921  0.16352874  0.22047083  1
  N  N18  1  0.16517431  0.33259214  0.97056069  1
  N  N19  1  0.33166128  0.16353253  0.72047538  1
  N  N20  1  0.16718736  0.83359810  0.47044883  1
  N  N21  1  0.33166988  0.66817118  0.22045866  1
  N  N22  1  0.16716714  0.83358825  0.97044241  1
  N  N23  1  0.33165286  0.66814961  0.72046246  1
  N  N24  1  0.66713589  0.33309695  0.47052730  1
  N  N25  1  0.83288504  0.16645588  0.22057731  1
  N  N26  1  0.66713513  0.33308927  0.97052392  1
  N  N27  1  0.83284607  0.16643607  0.72058160  1
  N  N28  1  0.66713650  0.83404615  0.47051929  1
  N  N29  1  0.83718286  0.66859757  0.22045067  1
  N  N30  1  0.66713598  0.83405348  0.97051614  1
  N  N31  1  0.83714514  0.66857929  0.72045486  1
