# generated using pymatgen
data_Ti7CoN8
_symmetry_space_group_name_H-M   'P 1'
_cell_length_a   5.99507489
_cell_length_b   5.99505908
_cell_length_c   8.48827135
_cell_angle_alpha   90.15308199
_cell_angle_beta   89.84704914
_cell_angle_gamma   89.97443381
_symmetry_Int_Tables_number   1
_chemical_formula_structural   Ti7CoN8
_chemical_formula_sum   'Ti14 Co2 N16'
_cell_volume   305.07329445
_cell_formula_units_Z   2
loop_
 _symmetry_equiv_pos_site_id
 _symmetry_equiv_pos_as_xyz
  1  'x, y, z'
loop_
 _atom_site_type_symbol
 _atom_site_label
 _atom_site_symmetry_multiplicity
 _atom_site_fract_x
 _atom_site_fract_y
 _atom_site_fract_z
 _atom_site_occupancy
  Co  Co0  1  0.50351539  0.49648254  0.50528358  1
  Co  Co1  1  0.24649105  0.75351135  0.24471442  1
  N  N2  1  0.75515378  0.75298527  0.50049508  1
  N  N3  1  0.75642789  0.24357212  0.49934922  1
  N  N4  1  0.24667204  0.75332643  0.50151431  1
  N  N5  1  0.24701355  0.24484632  0.50049562  1
  N  N6  1  0.50332947  0.49667256  0.24848768  1
  N  N7  1  0.50299002  0.00515394  0.24950797  1
  N  N8  1  0.74901865  0.74983336  0.00045522  1
  N  N9  1  0.74987041  0.25013109  0.00086640  1
  N  N10  1  0.99484526  0.49701173  0.24950772  1
  N  N11  1  0.99357143  0.00642798  0.25064911  1
  N  N12  1  0.24928747  0.75071186  0.99445532  1
  N  N13  1  0.25016586  0.25098290  0.00045465  1
  N  N14  1  0.50071049  0.49928923  0.75554460  1
  N  N15  1  0.49983286  0.99901668  0.74954328  1
  N  N16  1  0.00098207  0.50016729  0.74954300  1
  N  N17  1  0.00012968  0.99986884  0.74913537  1
  Ti  Ti18  1  0.74790926  0.25209034  0.74393804  1
  Ti  Ti19  1  0.75099762  0.75035799  0.74948701  1
  Ti  Ti20  1  0.24964407  0.24900030  0.74948683  1
  Ti  Ti21  1  0.25326116  0.74673800  0.74534861  1
  Ti  Ti22  1  0.49984373  0.99817372  0.50007695  1
  Ti  Ti23  1  0.74437993  0.25561974  0.25861711  1
  Ti  Ti24  1  0.74817201  0.74984231  0.24992686  1
  Ti  Ti25  1  0.00561524  0.99438544  0.49138633  1
  Ti  Ti26  1  0.00182579  0.50015551  0.50007669  1
  Ti  Ti27  1  0.25015815  0.25182959  0.24992656  1
  Ti  Ti28  1  0.50035771  0.00100169  0.00051127  1
  Ti  Ti29  1  0.49674226  0.50325834  0.00464621  1
  Ti  Ti30  1  0.00208529  0.99791499  0.00605825  1
  Ti  Ti31  1  0.99900041  0.49964056  0.00051072  1
