# generated using pymatgen
data_Ti7WN8
_symmetry_space_group_name_H-M   'P 1'
_cell_length_a   6.02116964
_cell_length_b   6.02116964
_cell_length_c   8.53039402
_cell_angle_alpha   89.96463638
_cell_angle_beta   90.03536363
_cell_angle_gamma   90.04591765
_symmetry_Int_Tables_number   1
_chemical_formula_structural   Ti7WN8
_chemical_formula_sum   'Ti14 W2 N16'
_cell_volume   309.26481514
_cell_formula_units_Z   2
loop_
 _symmetry_equiv_pos_site_id
 _symmetry_equiv_pos_as_xyz
  1  'x, y, z'
loop_
 _atom_site_type_symbol
 _atom_site_label
 _atom_site_symmetry_multiplicity
 _atom_site_fract_x
 _atom_site_fract_y
 _atom_site_fract_z
 _atom_site_occupancy
  W  W0  1  0.51200128  0.48799872  0.50785922  1
  W  W1  1  0.23799872  0.76200128  0.24214078  1
  N  N2  1  0.75120156  0.75341653  0.49966851  1
  N  N3  1  0.76052241  0.23947759  0.50037842  1
  N  N4  1  0.25307210  0.74692790  0.49868042  1
  N  N5  1  0.24658347  0.24879844  0.49966851  1
  N  N6  1  0.49692790  0.50307210  0.25131958  1
  N  N7  1  0.50341653  0.00120156  0.25033149  1
  N  N8  1  0.75039083  0.75040510  0.00033825  1
  N  N9  1  0.75011304  0.24988696  0.99950858  1
  N  N10  1  0.99879844  0.49658347  0.25033149  1
  N  N11  1  0.98947759  0.01052241  0.24962158  1
  N  N12  1  0.25030521  0.74969479  0.99379220  1
  N  N13  1  0.24959490  0.24960917  0.00033825  1
  N  N14  1  0.49969479  0.50030521  0.75620780  1
  N  N15  1  0.50040510  0.00039083  0.74966175  1
  N  N16  1  0.99960917  0.49959490  0.74966175  1
  N  N17  1  0.99988696  0.00011304  0.75049142  1
  Ti  Ti18  1  0.74734074  0.25265926  0.74626787  1
  Ti  Ti19  1  0.75036734  0.75054332  0.75073619  1
  Ti  Ti20  1  0.24945668  0.24963266  0.75073619  1
  Ti  Ti21  1  0.25011916  0.74988084  0.75168963  1
  Ti  Ti22  1  0.50447870  0.00972068  0.50109682  1
  Ti  Ti23  1  0.74975448  0.25024552  0.25292183  1
  Ti  Ti24  1  0.75972068  0.75447870  0.24890318  1
  Ti  Ti25  1  0.00024552  -0.00024552  0.49707817  1
  Ti  Ti26  1  0.99027932  0.49552130  0.50109682  1
  Ti  Ti27  1  0.24552130  0.24027932  0.24890318  1
  Ti  Ti28  1  0.50054332  0.00036734  0.99926381  1
  Ti  Ti29  1  0.49988084  0.50011916  -0.00168963  1
  Ti  Ti30  1  0.00265926  -0.00265926  0.00373213  1
  Ti  Ti31  1  0.99963266  0.49945668  0.99926381  1
