# generated using pymatgen
data_NbAl7N8
_symmetry_space_group_name_H-M   'P 1'
_cell_length_a   6.40711666
_cell_length_b   6.40467876
_cell_length_c   10.00375659
_cell_angle_alpha   90.08980827
_cell_angle_beta   89.99958826
_cell_angle_gamma   120.01127981
_symmetry_Int_Tables_number   1
_chemical_formula_structural   NbAl7N8
_chemical_formula_sum   'Nb2 Al14 N16'
_cell_volume   355.47056850
_cell_formula_units_Z   2
loop_
 _symmetry_equiv_pos_site_id
 _symmetry_equiv_pos_as_xyz
  1  'x, y, z'
loop_
 _atom_site_type_symbol
 _atom_site_label
 _atom_site_symmetry_multiplicity
 _atom_site_fract_x
 _atom_site_fract_y
 _atom_site_fract_z
 _atom_site_occupancy
  Al  Al0  1  0.16892483  0.33324691  0.25276651  1
  Al  Al1  1  0.33795354  0.17591452  0.99713880  1
  Al  Al2  1  0.16440869  0.33341638  0.75272457  1
  Al  Al3  1  0.33180140  0.16357480  0.50178239  1
  Al  Al4  1  0.34044012  0.66325231  0.99888127  1
  Al  Al5  1  0.16595576  0.83193273  0.75767865  1
  Al  Al6  1  0.32297735  0.66360383  0.49892627  1
  Al  Al7  1  0.66433040  0.33327021  0.25271940  1
  Al  Al8  1  0.83163084  0.16322094  0.00176299  1
  Al  Al9  1  0.66898527  0.33339461  0.75276558  1
  Al  Al10  1  0.83808602  0.17619792  0.49710909  1
  Al  Al11  1  0.66588976  0.83177897  0.25763179  1
  Al  Al12  1  0.82283629  0.66328293  0.99889535  1
  Al  Al13  1  0.84059787  0.66356980  0.49891609  1
  Nb  Nb14  1  0.16731493  0.83463163  0.22113804  1
  Nb  Nb15  1  0.66744927  0.83491966  0.72114302  1
  N  N16  1  0.16862659  0.33239967  0.44249258  1
  N  N17  1  0.34834955  0.19671711  0.18625729  1
  N  N18  1  0.16360643  0.33207582  0.94245256  1
  N  N19  1  0.33286501  0.16572415  0.69682977  1
  N  N20  1  0.16761582  0.83525963  0.44390347  1
  N  N21  1  0.34926511  0.65248078  0.19065208  1
  N  N22  1  0.16649515  0.83298590  0.95375272  1
  N  N23  1  0.30339602  0.65274831  0.69073075  1
  N  N24  1  0.66376648  0.33239198  0.44245206  1
  N  N25  1  0.83278044  0.16554324  0.19680650  1
  N  N26  1  0.66848532  0.33208502  0.94248922  1
  N  N27  1  0.84848794  0.19700228  0.68621920  1
  N  N28  1  0.66661917  0.83324768  0.45372355  1
  N  N29  1  0.80327936  0.65253626  0.19065598  1
  N  N30  1  0.66744524  0.83489668  0.94387410  1
  N  N31  1  0.84933398  0.65269736  0.69072842  1
