# generated using pymatgen
data_Ti7MoN8
_symmetry_space_group_name_H-M   'P 1'
_cell_length_a   7.03746058
_cell_length_b   7.03887049
_cell_length_c   8.43878526
_cell_angle_alpha   89.99372380
_cell_angle_beta   90.00000000
_cell_angle_gamma   119.99337412
_symmetry_Int_Tables_number   1
_chemical_formula_structural   Ti7MoN8
_chemical_formula_sum   'Ti14 Mo2 N16'
_cell_volume   362.04162561
_cell_formula_units_Z   2
loop_
 _symmetry_equiv_pos_site_id
 _symmetry_equiv_pos_as_xyz
  1  'x, y, z'
loop_
 _atom_site_type_symbol
 _atom_site_label
 _atom_site_symmetry_multiplicity
 _atom_site_fract_x
 _atom_site_fract_y
 _atom_site_fract_z
 _atom_site_occupancy
  Ti  Ti0  1  0.16774714  0.33549426  0.21779013  1
  Ti  Ti1  1  0.33915390  0.16971835  0.96777083  1
  Ti  Ti2  1  0.16977935  0.33955871  0.72320292  1
  Ti  Ti3  1  0.33464042  0.16738791  0.47310849  1
  Ti  Ti4  1  0.16723369  0.83249906  0.21778715  1
  Ti  Ti5  1  0.16947093  0.83038368  0.72328070  1
  Ti  Ti6  1  0.33352485  0.66704970  0.46924768  1
  Ti  Ti7  1  0.66651598  0.33303198  0.22190057  1
  Ti  Ti8  1  0.83056443  0.16971835  0.96777083  1
  Ti  Ti9  1  0.83274748  0.16738791  0.47310849  1
  Ti  Ti10  1  0.66526536  0.83249906  0.21778715  1
  Ti  Ti11  1  0.83015577  0.66031155  0.96772593  1
  Ti  Ti12  1  0.66091276  0.83038368  0.72328070  1
  Ti  Ti13  1  0.83231895  0.66463790  0.47325527  1
  Mo  Mo14  1  0.33349119  0.66698237  0.97333390  1
  Mo  Mo15  1  0.66645004  0.33290007  0.71765116  1
  N  N16  1  0.16583078  0.33166157  0.47067323  1
  N  N17  1  0.33089121  0.16556833  0.22025432  1
  N  N18  1  0.16029985  0.32059969  0.97063507  1
  N  N19  1  0.31995521  0.16008503  0.72029447  1
  N  N20  1  0.16530122  0.83437232  0.47072739  1
  N  N21  1  0.33370307  0.66740616  0.22631516  1
  N  N22  1  0.15988518  0.83996369  0.97063378  1
  N  N23  1  0.33354464  0.66708927  0.71591407  1
  N  N24  1  0.66633710  0.33267420  0.46479754  1
  N  N25  1  0.83467710  0.16556833  0.22025432  1
  N  N26  1  0.66645461  0.33290921  0.97520639  1
  N  N27  1  0.84012980  0.16008503  0.72029447  1
  N  N28  1  0.66907111  0.83437232  0.47072739  1
  N  N29  1  0.83418491  0.66836982  0.22029490  1
  N  N30  1  0.68007853  0.83996369  0.97063378  1
  N  N31  1  0.83968343  0.67936689  0.72034190  1
