# generated using pymatgen
data_YTi7N8
_symmetry_space_group_name_H-M   'P 1'
_cell_length_a   7.14562130
_cell_length_b   7.14861331
_cell_length_c   8.65909382
_cell_angle_alpha   90.00000004
_cell_angle_beta   89.99296617
_cell_angle_gamma   120.01385210
_symmetry_Int_Tables_number   1
_chemical_formula_structural   YTi7N8
_chemical_formula_sum   'Y2 Ti14 N16'
_cell_volume   383.00481781
_cell_formula_units_Z   2
loop_
 _symmetry_equiv_pos_site_id
 _symmetry_equiv_pos_as_xyz
  1  'x, y, z'
loop_
 _atom_site_type_symbol
 _atom_site_label
 _atom_site_symmetry_multiplicity
 _atom_site_fract_x
 _atom_site_fract_y
 _atom_site_fract_z
 _atom_site_occupancy
  Ti  Ti0  1  0.16349520  0.33174759  0.23506024  1
  Ti  Ti1  1  0.16350248  0.33175123  0.70596000  1
  Ti  Ti2  1  0.33428481  0.16710348  0.47046877  1
  Ti  Ti3  1  0.16339694  0.83169845  0.23499066  1
  Ti  Ti4  1  0.16335040  0.83167520  0.70601540  1
  Ti  Ti5  1  0.33428481  0.66718135  0.47046877  1
  Ti  Ti6  1  0.67069568  0.33519842  0.22827942  1
  Ti  Ti7  1  0.83152418  0.16576209  0.97045907  1
  Ti  Ti8  1  0.67061976  0.33518101  0.71275357  1
  Ti  Ti9  1  0.83334948  0.16667475  0.47049875  1
  Ti  Ti10  1  0.67069568  0.83549724  0.22827942  1
  Ti  Ti11  1  0.83154514  0.66577258  0.97051780  1
  Ti  Ti12  1  0.67061976  0.83543873  0.71275357  1
  Ti  Ti13  1  0.83331285  0.66665643  0.47047904  1
  Y  Y14  1  0.33404062  0.16699360  0.97053573  1
  Y  Y15  1  0.33404062  0.66704704  0.97053573  1
  N  N16  1  0.16731067  0.33365534  0.47051327  1
  N  N17  1  0.33149652  0.16612482  0.23305287  1
  N  N18  1  0.13601014  0.31800507  0.97043555  1
  N  N19  1  0.33142936  0.16609704  0.70795029  1
  N  N20  1  0.16739893  0.83369946  0.47051180  1
  N  N21  1  0.33149652  0.66537172  0.23305287  1
  N  N22  1  0.13608487  0.81804243  0.97049492  1
  N  N23  1  0.33142936  0.66533233  0.70795029  1
  N  N24  1  0.66591651  0.33298494  0.47050127  1
  N  N25  1  0.83421847  0.16710924  0.22390728  1
  N  N26  1  0.69758414  0.34880785  0.97050090  1
  N  N27  1  0.83408400  0.16704200  0.71708048  1
  N  N28  1  0.66591651  0.83293154  0.47050127  1
  N  N29  1  0.83466435  0.66733218  0.22387338  1
  N  N30  1  0.69758414  0.84877628  0.97050090  1
  N  N31  1  0.83461706  0.66730854  0.71711680  1
