# generated using pymatgen
data_Ti7WN8
_symmetry_space_group_name_H-M   'P 1'
_cell_length_a   7.02373659
_cell_length_b   7.02170781
_cell_length_c   8.45393281
_cell_angle_alpha   90.00077112
_cell_angle_beta   89.99519292
_cell_angle_gamma   119.66087305
_symmetry_Int_Tables_number   1
_chemical_formula_structural   Ti7WN8
_chemical_formula_sum   'Ti14 W2 N16'
_cell_volume   362.30503686
_cell_formula_units_Z   2
loop_
 _symmetry_equiv_pos_site_id
 _symmetry_equiv_pos_as_xyz
  1  'x, y, z'
loop_
 _atom_site_type_symbol
 _atom_site_label
 _atom_site_symmetry_multiplicity
 _atom_site_fract_x
 _atom_site_fract_y
 _atom_site_fract_z
 _atom_site_occupancy
  Ti  Ti0  1  0.16511283  0.33415992  0.22051814  1
  Ti  Ti1  1  0.33108091  0.16134948  0.97043182  1
  Ti  Ti2  1  0.16520416  0.33426222  0.72048984  1
  Ti  Ti3  1  0.33894174  0.16927207  0.47050783  1
  Ti  Ti4  1  0.16713455  0.83322775  0.22488376  1
  Ti  Ti5  1  0.33176775  0.66786078  0.97054714  1
  Ti  Ti6  1  0.16715854  0.83319853  0.71607109  1
  Ti  Ti7  1  0.66694214  0.33332432  0.21606992  1
  Ti  Ti8  1  0.66698150  0.33341146  0.72486134  1
  Ti  Ti9  1  0.83162416  0.16800649  0.47054005  1
  Ti  Ti10  1  0.66534457  0.83438969  0.22051259  1
  Ti  Ti11  1  0.83909463  0.66936581  0.97049428  1
  Ti  Ti12  1  0.66533757  0.83437007  0.72051955  1
  Ti  Ti13  1  0.83123820  0.66151913  0.47046008  1
  W  W14  1  0.33354165  0.66614849  0.47053119  1
  W  W15  1  0.83331689  0.16631233  0.97051461  1
  N  N16  1  0.16358705  0.32621140  0.47053588  1
  N  N17  1  0.33363388  0.16671503  0.22046488  1
  N  N18  1  0.17310451  0.33559755  0.97052937  1
  N  N19  1  0.33368537  0.16668642  0.72047862  1
  N  N20  1  0.16267367  0.83783194  0.47046630  1
  N  N21  1  0.33381430  0.66562803  0.21723107  1
  N  N22  1  0.16572842  0.83472926  0.97043543  1
  N  N23  1  0.33387033  0.66570574  0.72389302  1
  N  N24  1  0.66549853  0.33494062  0.47043161  1
  N  N25  1  0.83357085  0.16587398  0.22386854  1
  N  N26  1  0.66245772  0.33799240  0.97045310  1
  N  N27  1  0.83364172  0.16589452  0.71721989  1
  N  N28  1  0.67329431  0.83585536  0.47054260  1
  N  N29  1  0.83390313  0.66687470  0.22046882  1
  N  N30  1  0.66383816  0.82635411  0.97054756  1
  N  N31  1  0.83387619  0.66693042  0.72048015  1
