# generated using pymatgen
data_ZrTi7N8
_symmetry_space_group_name_H-M   'P 1'
_cell_length_a   7.09331164
_cell_length_b   7.09331165
_cell_length_c   8.55527009
_cell_angle_alpha   89.99576613
_cell_angle_beta   90.00423379
_cell_angle_gamma   119.99904841
_symmetry_Int_Tables_number   1
_chemical_formula_structural   ZrTi7N8
_chemical_formula_sum   'Zr2 Ti14 N16'
_cell_volume   372.79201493
_cell_formula_units_Z   2
loop_
 _symmetry_equiv_pos_site_id
 _symmetry_equiv_pos_as_xyz
  1  'x, y, z'
loop_
 _atom_site_type_symbol
 _atom_site_label
 _atom_site_symmetry_multiplicity
 _atom_site_fract_x
 _atom_site_fract_y
 _atom_site_fract_z
 _atom_site_occupancy
  Ti  Ti0  1  0.16681787  0.33318213  0.22189530  1
  Ti  Ti1  1  0.33270667  0.16729333  0.96903156  1
  Ti  Ti2  1  0.16720830  0.33279170  0.71876489  1
  Ti  Ti3  1  0.33235699  0.16764301  0.47218750  1
  Ti  Ti4  1  0.16979595  0.83563845  0.21616723  1
  Ti  Ti5  1  0.33065270  0.66484695  0.97484830  1
  Ti  Ti6  1  0.16967670  0.83630205  0.72531382  1
  Ti  Ti7  1  0.33076102  0.66413889  0.46571612  1
  Ti  Ti8  1  0.66436155  0.33020405  0.21616723  1
  Ti  Ti9  1  0.83515305  0.16934730  0.97484830  1
  Ti  Ti10  1  0.66369795  0.33032330  0.72531382  1
  Ti  Ti11  1  0.83586111  0.16923898  0.46571612  1
  Ti  Ti12  1  0.66545938  0.83454062  0.21725286  1
  Ti  Ti13  1  0.83497721  0.66502279  0.97372367  1
  Zr  Zr14  1  0.66559631  0.83440369  0.72341142  1
  Zr  Zr15  1  0.83491697  0.66508303  0.46757399  1
  N  N16  1  0.16649394  0.33350606  0.46942675  1
  N  N17  1  0.33315940  0.16684060  0.21944136  1
  N  N18  1  0.16614837  0.33385163  0.97150972  1
  N  N19  1  0.33284997  0.16715003  0.72154971  1
  N  N20  1  0.18368798  0.84172336  0.46972878  1
  N  N21  1  0.33210748  0.66585921  0.21945638  1
  N  N22  1  0.16854695  0.83481870  0.97162680  1
  N  N23  1  0.31702517  0.65898938  0.72129569  1
  N  N24  1  0.65827664  0.31631202  0.46972878  1
  N  N25  1  0.83414079  0.16789252  0.21945638  1
  N  N26  1  0.66518130  0.33145305  0.97162680  1
  N  N27  1  0.84101062  0.18297483  0.72129569  1
  N  N28  1  0.65859036  0.84140964  0.46341239  1
  N  N29  1  0.83390389  0.66609611  0.21375432  1
  N  N30  1  0.66675565  0.83324435  0.97720599  1
  N  N31  1  0.84212176  0.65787824  0.72755238  1
