# generated using pymatgen
data_Ti7NiN8
_symmetry_space_group_name_H-M   'P 1'
_cell_length_a   7.10574711
_cell_length_b   6.94502081
_cell_length_c   8.37598991
_cell_angle_alpha   90.00000000
_cell_angle_beta   90.02331789
_cell_angle_gamma   119.25454177
_symmetry_Int_Tables_number   1
_chemical_formula_structural   Ti7NiN8
_chemical_formula_sum   'Ti14 Ni2 N16'
_cell_volume   360.63142147
_cell_formula_units_Z   2
loop_
 _symmetry_equiv_pos_site_id
 _symmetry_equiv_pos_as_xyz
  1  'x, y, z'
loop_
 _atom_site_type_symbol
 _atom_site_label
 _atom_site_symmetry_multiplicity
 _atom_site_fract_x
 _atom_site_fract_y
 _atom_site_fract_z
 _atom_site_occupancy
  Ni  Ni0  1  0.29634601  0.39817299  0.21915152  1
  Ni  Ni1  1  0.29630208  0.89815105  0.71919274  1
  Ti  Ti2  1  0.32470442  0.16194758  0.97040043  1
  Ti  Ti3  1  0.15832657  0.32916327  0.72063695  1
  Ti  Ti4  1  0.32463400  0.16267856  0.47039274  1
  Ti  Ti5  1  0.15826847  0.82913424  0.22062923  1
  Ti  Ti6  1  0.32470442  0.66275684  0.97040043  1
  Ti  Ti7  1  0.32463400  0.66195544  0.47039274  1
  Ti  Ti8  1  0.65636267  0.33145820  0.22060567  1
  Ti  Ti9  1  0.82954610  0.16477304  0.97368419  1
  Ti  Ti10  1  0.65633618  0.32485640  0.72059445  1
  Ti  Ti11  1  0.82921880  0.16460940  0.46768391  1
  Ti  Ti12  1  0.65636267  0.82490448  0.22060567  1
  Ti  Ti13  1  0.82922732  0.66461367  0.96765999  1
  Ti  Ti14  1  0.65633618  0.83147977  0.72059445  1
  Ti  Ti15  1  0.82937986  0.66468994  0.47365340  1
  N  N16  1  0.14996192  0.32498097  0.46810622  1
  N  N17  1  0.33411382  0.14812823  0.22048598  1
  N  N18  1  0.15082103  0.32541051  0.97336374  1
  N  N19  1  0.33409886  0.18594931  0.72048674  1
  N  N20  1  0.15063364  0.82531682  0.47334466  1
  N  N21  1  0.33411382  0.68598560  0.22048598  1
  N  N22  1  0.14995144  0.82497571  0.96808566  1
  N  N23  1  0.33409886  0.64814956  0.72048674  1
  N  N24  1  0.66004086  0.33013613  0.47056704  1
  N  N25  1  0.79766054  0.14883027  0.22065494  1
  N  N26  1  0.66012208  0.32990904  0.97056629  1
  N  N27  1  0.83803487  0.16901744  0.72067281  1
  N  N28  1  0.66004086  0.82990471  0.47056704  1
  N  N29  1  0.83797792  0.66898897  0.22064946  1
  N  N30  1  0.66012208  0.83021303  0.97056629  1
  N  N31  1  0.79751762  0.64875882  0.72063194  1
