# generated using pymatgen
data_TiAl7N8
_symmetry_space_group_name_H-M   'P 1'
_cell_length_a   6.33719748
_cell_length_b   6.33720414
_cell_length_c   10.04401953
_cell_angle_alpha   89.97478261
_cell_angle_beta   90.02515453
_cell_angle_gamma   120.01149881
_symmetry_Int_Tables_number   1
_chemical_formula_structural   TiAl7N8
_chemical_formula_sum   'Ti2 Al14 N16'
_cell_volume   349.28724708
_cell_formula_units_Z   2
loop_
 _symmetry_equiv_pos_site_id
 _symmetry_equiv_pos_as_xyz
  1  'x, y, z'
loop_
 _atom_site_type_symbol
 _atom_site_label
 _atom_site_symmetry_multiplicity
 _atom_site_fract_x
 _atom_site_fract_y
 _atom_site_fract_z
 _atom_site_occupancy
  Al  Al0  1  0.16608227  0.33391807  0.25215482  1
  Al  Al1  1  0.33324982  0.16674990  0.00160116  1
  Al  Al2  1  0.33532715  0.16467245  0.49805208  1
  Al  Al3  1  0.16508267  0.83168745  0.25104238  1
  Al  Al4  1  0.32929119  0.66458163  0.99931970  1
  Al  Al5  1  0.16834701  0.83482322  0.75109030  1
  Al  Al6  1  0.33538304  0.67069845  0.49935066  1
  Al  Al7  1  0.66831279  0.33491761  0.25104230  1
  Al  Al8  1  0.83541823  0.17070862  0.99931943  1
  Al  Al9  1  0.66517660  0.33165272  0.75109020  1
  Al  Al10  1  0.82930099  0.16461640  0.49935066  1
  Al  Al11  1  0.83526256  0.66473711  0.99805312  1
  Al  Al12  1  0.66610172  0.83389818  0.75212812  1
  Al  Al13  1  0.83325852  0.66674105  0.50161830  1
  Ti  Ti14  1  0.16697785  0.33302250  0.74057339  1
  Ti  Ti15  1  0.66687545  0.83312530  0.24065734  1
  N  N16  1  0.16652334  0.33347695  0.44554583  1
  N  N17  1  0.33342315  0.16657677  0.19397407  1
  N  N18  1  0.16745170  0.33254922  0.94566983  1
  N  N19  1  0.34103244  0.15896687  0.68744645  1
  N  N20  1  0.16483605  0.83215671  0.44117328  1
  N  N21  1  0.31859327  0.65938341  0.18986063  1
  N  N22  1  0.16781014  0.83514069  0.94121607  1
  N  N23  1  0.34062255  0.68135390  0.68986621  1
  N  N24  1  0.66784369  0.33516436  0.44117322  1
  N  N25  1  0.84061647  0.18140680  0.18986059  1
  N  N26  1  0.66485985  0.33219035  0.94121598  1
  N  N27  1  0.81864568  0.15937686  0.68986604  1
  N  N28  1  0.66743679  0.83256376  0.44572928  1
  N  N29  1  0.84089858  0.65910113  0.18745111  1
  N  N30  1  0.66649180  0.83350879  0.94551524  1
  N  N31  1  0.83346663  0.66653280  0.69399222  1
