# generated using pymatgen
data_Ti7OsN8
_symmetry_space_group_name_H-M   'P 1'
_cell_length_a   7.08730099
_cell_length_b   7.03753382
_cell_length_c   8.39832074
_cell_angle_alpha   90.00288572
_cell_angle_beta   90.00000000
_cell_angle_gamma   120.23420627
_symmetry_Int_Tables_number   1
_chemical_formula_structural   Ti7OsN8
_chemical_formula_sum   'Ti14 Os2 N16'
_cell_volume   361.90507390
_cell_formula_units_Z   2
loop_
 _symmetry_equiv_pos_site_id
 _symmetry_equiv_pos_as_xyz
  1  'x, y, z'
loop_
 _atom_site_type_symbol
 _atom_site_label
 _atom_site_symmetry_multiplicity
 _atom_site_fract_x
 _atom_site_fract_y
 _atom_site_fract_z
 _atom_site_occupancy
  Ti  Ti0  1  0.16614233  0.33228465  0.22593402  1
  Ti  Ti1  1  0.32968812  0.16939043  0.97051523  1
  Ti  Ti2  1  0.16632066  0.33264132  0.71492929  1
  Ti  Ti3  1  0.34212945  0.17171092  0.47050290  1
  Ti  Ti4  1  0.16667326  0.83212413  0.22100325  1
  Ti  Ti5  1  0.33128731  0.66257465  0.97047821  1
  Ti  Ti6  1  0.16682228  0.83246736  0.72001178  1
  Ti  Ti7  1  0.66858421  0.33716840  0.21379123  1
  Ti  Ti8  1  0.83970228  0.16939043  0.97051523  1
  Ti  Ti9  1  0.66874238  0.33748474  0.72730354  1
  Ti  Ti10  1  0.82958145  0.17171092  0.47050290  1
  Ti  Ti11  1  0.66545089  0.83212413  0.22100325  1
  Ti  Ti12  1  0.66564509  0.83246736  0.72001178  1
  Ti  Ti13  1  0.83302046  0.66604094  0.47052971  1
  Os  Os14  1  0.32640585  0.65281171  0.47039372  1
  Os  Os15  1  0.83918969  0.67837940  0.97053319  1
  N  N16  1  0.15146043  0.30292086  0.47043739  1
  N  N17  1  0.33492340  0.16667487  0.22034650  1
  N  N18  1  0.16570562  0.33141123  0.97039843  1
  N  N19  1  0.33505817  0.16700231  0.72066509  1
  N  N20  1  0.15837639  0.84387799  0.47052539  1
  N  N21  1  0.33204176  0.66408356  0.21861567  1
  N  N22  1  0.19024256  0.84100480  0.97054200  1
  N  N23  1  0.33228479  0.66456960  0.72225028  1
  N  N24  1  0.66783117  0.33566230  0.47055971  1
  N  N25  1  0.83175145  0.16667487  0.22034650  1
  N  N26  1  0.65607487  0.31214970  0.97054348  1
  N  N27  1  0.83194413  0.16700231  0.72066509  1
  N  N28  1  0.68550161  0.84387799  0.47052539  1
  N  N29  1  0.83521930  0.67043863  0.22265747  1
  N  N30  1  0.65076225  0.84100480  0.97054200  1
  N  N31  1  0.83543636  0.67087271  0.71842046  1
