# generated using pymatgen
data_Ti7AlN8
_symmetry_space_group_name_H-M   'P 1'
_cell_length_a   5.98470993
_cell_length_b   5.98470993
_cell_length_c   8.45777895
_cell_angle_alpha   89.88470605
_cell_angle_beta   90.11529401
_cell_angle_gamma   89.96180661
_symmetry_Int_Tables_number   1
_chemical_formula_structural   Ti7AlN8
_chemical_formula_sum   'Ti14 Al2 N16'
_cell_volume   302.92888437
_cell_formula_units_Z   2
loop_
 _symmetry_equiv_pos_site_id
 _symmetry_equiv_pos_as_xyz
  1  'x, y, z'
loop_
 _atom_site_type_symbol
 _atom_site_label
 _atom_site_symmetry_multiplicity
 _atom_site_fract_x
 _atom_site_fract_y
 _atom_site_fract_z
 _atom_site_occupancy
  Al  Al0  1  0.49691477  0.50308523  0.49806714  1
  Al  Al1  1  0.25308523  0.74691477  0.25193286  1
  N  N2  1  0.74270512  0.74323612  0.50074833  1
  N  N3  1  0.74122197  0.25877803  0.49764656  1
  N  N4  1  0.25635681  0.74364319  0.49185174  1
  N  N5  1  0.25676388  0.25729488  0.50074833  1
  N  N6  1  0.49364319  0.50635681  0.25814826  1
  N  N7  1  0.49323612  0.99270512  0.24925167  1
  N  N8  1  0.74938723  0.74902021  0.99892770  1
  N  N9  1  0.74941125  0.25058875  0.00235253  1
  N  N10  1  0.00729488  0.50676388  0.24925167  1
  N  N11  1  0.00877803  0.99122197  0.25235344  1
  N  N12  1  0.25089672  0.74910328  0.01012266  1
  N  N13  1  0.25097979  0.25061277  0.99892770  1
  N  N14  1  0.49910328  0.50089672  0.73987734  1
  N  N15  1  0.49902021  0.99938723  0.75107230  1
  N  N16  1  0.00061277  0.50097979  0.75107230  1
  N  N17  1  0.00058875  0.99941125  0.74764747  1
  Ti  Ti18  1  0.75194304  0.24805696  0.75027702  1
  Ti  Ti19  1  0.75072033  0.75058315  0.75073434  1
  Ti  Ti20  1  0.24941685  0.24927967  0.75073434  1
  Ti  Ti21  1  0.24786820  0.75213180  0.75005243  1
  Ti  Ti22  1  0.50251231  0.00283356  0.50120769  1
  Ti  Ti23  1  0.75078204  0.24921796  0.24983200  1
  Ti  Ti24  1  0.75283356  0.75251231  0.24879231  1
  Ti  Ti25  1  0.99921796  0.00078204  0.50016800  1
  Ti  Ti26  1  0.99716644  0.49748769  0.50120769  1
  Ti  Ti27  1  0.24748769  0.24716644  0.24879231  1
  Ti  Ti28  1  0.50058315  0.00072033  0.99926566  1
  Ti  Ti29  1  0.50213180  0.49786820  0.99994757  1
  Ti  Ti30  1  0.99805696  0.00194304  0.99972298  1
  Ti  Ti31  1  0.99927967  0.49941685  0.99926566  1
