# generated using pymatgen
data_Al7MoN8
_symmetry_space_group_name_H-M   'P 1'
_cell_length_a   6.18699314
_cell_length_b   6.32271921
_cell_length_c   10.26504461
_cell_angle_alpha   89.29148455
_cell_angle_beta   90.00000006
_cell_angle_gamma   119.29240013
_symmetry_Int_Tables_number   1
_chemical_formula_structural   Al7MoN8
_chemical_formula_sum   'Al14 Mo2 N16'
_cell_volume   350.17409861
_cell_formula_units_Z   2
loop_
 _symmetry_equiv_pos_site_id
 _symmetry_equiv_pos_as_xyz
  1  'x, y, z'
loop_
 _atom_site_type_symbol
 _atom_site_label
 _atom_site_symmetry_multiplicity
 _atom_site_fract_x
 _atom_site_fract_y
 _atom_site_fract_z
 _atom_site_occupancy
  Mo  Mo0  1  0.17066027  0.34132091  0.26047477  1
  Mo  Mo1  1  0.67351756  0.34703475  0.25777308  1
  Al  Al2  1  0.32803425  0.15607260  0.99393122  1
  Al  Al3  1  0.16727273  0.33454546  0.74982634  1
  Al  Al4  1  0.33712767  0.17305509  0.50618921  1
  Al  Al5  1  0.16395185  0.82497767  0.25158322  1
  Al  Al6  1  0.33133736  0.66267470  0.99447324  1
  Al  Al7  1  0.16703332  0.83377808  0.75021064  1
  Al  Al8  1  0.33846149  0.67692299  0.50553126  1
  Al  Al9  1  0.82803834  0.15607260  0.99393119  1
  Al  Al10  1  0.66720684  0.33441368  0.74966554  1
  Al  Al11  1  0.83592744  0.17305511  0.50618920  1
  Al  Al12  1  0.66102580  0.82497765  0.25158322  1
  Al  Al13  1  0.83133609  0.66267218  0.99313714  1
  Al  Al14  1  0.66674475  0.83377808  0.75021064  1
  Al  Al15  1  0.83854341  0.67708681  0.50563291  1
  N  N16  1  0.17242961  0.34485919  0.45961729  1
  N  N17  1  0.31856788  0.13541724  0.17702698  1
  N  N18  1  0.16635858  0.33271716  0.93816102  1
  N  N19  1  0.33187806  0.16360516  0.69374372  1
  N  N20  1  0.17289479  0.84559642  0.44088446  1
  N  N21  1  0.33752073  0.67504144  0.18257516  1
  N  N22  1  0.16440040  0.82868357  0.93494795  1
  N  N23  1  0.33379714  0.66759427  0.69132713  1
  N  N24  1  0.67284839  0.34569682  0.45873807  1
  N  N25  1  0.81684932  0.13541716  0.17702695  1
  N  N26  1  0.66629251  0.33258504  0.93798588  1
  N  N27  1  0.83172711  0.16360516  0.69374372  1
  N  N28  1  0.67270162  0.84559640  0.44088445  1
  N  N29  1  0.83744362  0.67488726  0.18260955  1
  N  N30  1  0.66428315  0.82868357  0.93494795  1
  N  N31  1  0.83378789  0.66757579  0.69143693  1
