# generated using pymatgen
data_MnAl7N8
_symmetry_space_group_name_H-M   'P 1'
_cell_length_a   6.27406923
_cell_length_b   6.27928059
_cell_length_c   10.10596013
_cell_angle_alpha   89.67481948
_cell_angle_beta   90.00023517
_cell_angle_gamma   119.97252913
_symmetry_Int_Tables_number   1
_chemical_formula_structural   MnAl7N8
_chemical_formula_sum   'Mn2 Al14 N16'
_cell_volume   344.88812979
_cell_formula_units_Z   2
loop_
 _symmetry_equiv_pos_site_id
 _symmetry_equiv_pos_as_xyz
  1  'x, y, z'
loop_
 _atom_site_type_symbol
 _atom_site_label
 _atom_site_symmetry_multiplicity
 _atom_site_fract_x
 _atom_site_fract_y
 _atom_site_fract_z
 _atom_site_occupancy
  Al  Al0  1  0.17181417  0.33419312  0.25399860  1
  Al  Al1  1  0.33200275  0.16400324  -0.00010492  1
  Al  Al2  1  0.16676178  0.33299518  0.74870713  1
  Al  Al3  1  0.33368133  0.16736541  0.50163251  1
  Al  Al4  1  0.16674067  0.83348485  0.25065471  1
  Al  Al5  1  0.32999246  0.66280081  0.99847069  1
  Al  Al6  1  0.16671795  0.83343399  0.74967403  1
  Al  Al7  1  0.33368131  0.66922597  0.50041165  1
  Al  Al8  1  0.66237056  0.33419186  0.25400027  1
  Al  Al9  1  0.66623579  0.33299583  0.74870693  1
  Al  Al10  1  0.83623756  0.17247541  0.49953582  1
  Al  Al11  1  0.83281149  0.66280065  0.99847301  1
  Al  Al12  1  0.66655625  0.83310943  0.74843565  1
  Al  Al13  1  0.83554670  0.66922484  0.50041260  1
  Mn  Mn14  1  0.83091211  0.16181900  0.00428253  1
  Mn  Mn15  1  0.66901212  0.83802139  0.24834363  1
  N  N16  1  0.17125807  0.33754694  0.44249398  1
  N  N17  1  0.33295767  0.16592586  0.19064413  1
  N  N18  1  0.17410280  0.33501278  0.93713284  1
  N  N19  1  0.33283028  0.16565889  0.68980983  1
  N  N20  1  0.16776399  0.83552839  0.43980812  1
  N  N21  1  0.32377323  0.66015600  0.18820912  1
  N  N22  1  0.16618145  0.83236216  0.93963140  1
  N  N23  1  0.33311904  0.66762819  0.68925347  1
  N  N24  1  0.66628550  0.33754646  0.44249495  1
  N  N25  1  0.83591587  0.17184710  0.20639999  1
  N  N26  1  0.66091452  0.33501369  0.93713514  1
  N  N27  1  0.83382059  0.16764043  0.68933219  1
  N  N28  1  0.66968371  0.83935915  0.44357175  1
  N  N29  1  0.83637691  0.66015059  0.18821320  1
  N  N30  1  0.65943064  0.81885533  0.93698230  1
  N  N31  1  0.83451075  0.66762703  0.68925277  1
