# generated using pymatgen
data_Al7FeN8
_symmetry_space_group_name_H-M   'P 1'
_cell_length_a   6.28665543
_cell_length_b   6.28665537
_cell_length_c   10.08773040
_cell_angle_alpha   89.97967735
_cell_angle_beta   90.02032260
_cell_angle_gamma   119.99775011
_symmetry_Int_Tables_number   1
_chemical_formula_structural   Al7FeN8
_chemical_formula_sum   'Al14 Fe2 N16'
_cell_volume   345.28142720
_cell_formula_units_Z   2
loop_
 _symmetry_equiv_pos_site_id
 _symmetry_equiv_pos_as_xyz
  1  'x, y, z'
loop_
 _atom_site_type_symbol
 _atom_site_label
 _atom_site_symmetry_multiplicity
 _atom_site_fract_x
 _atom_site_fract_y
 _atom_site_fract_z
 _atom_site_occupancy
  Al  Al0  1  0.16702835  0.33297163  0.25051728  1
  Al  Al1  1  0.33317591  0.16682408  0.00020235  1
  Al  Al2  1  0.16674509  0.33325490  0.75053178  1
  Al  Al3  1  0.33279321  0.16720681  0.50058222  1
  Al  Al4  1  0.16788604  0.83449871  0.24918812  1
  Al  Al5  1  0.33301973  0.66615992  0.99895929  1
  Al  Al6  1  0.16830668  0.83465056  0.75133069  1
  Al  Al7  1  0.33110718  0.66515205  0.50186796  1
  Al  Al8  1  0.66550129  0.33211396  0.24918811  1
  Al  Al9  1  0.83384008  0.16698027  0.99895930  1
  Al  Al10  1  0.66534945  0.33169331  0.75133069  1
  Al  Al11  1  0.83484794  0.16889283  0.50186793  1
  Al  Al12  1  0.83356657  0.66643343  0.99775119  1
  Al  Al13  1  0.66563342  0.83436658  0.74996220  1
  Fe  Fe14  1  0.66716540  0.83283456  0.24921931  1
  Fe  Fe15  1  0.83514191  0.66485811  0.50134640  1
  N  N16  1  0.16646553  0.33353448  0.44102823  1
  N  N17  1  0.33288753  0.16711247  0.19015961  1
  N  N18  1  0.16710925  0.33289074  0.93998116  1
  N  N19  1  0.33326173  0.16673828  0.69056497  1
  N  N20  1  0.17591414  0.83805815  0.43850797  1
  N  N21  1  0.32429245  0.66150961  0.18799856  1
  N  N22  1  0.16807833  0.83463365  0.94085005  1
  N  N23  1  0.33193717  0.66622157  0.69182713  1
  N  N24  1  0.66194185  0.32408588  0.43850797  1
  N  N25  1  0.83849038  0.17570752  0.18799857  1
  N  N26  1  0.66536635  0.33192167  0.94085005  1
  N  N27  1  0.83377844  0.16806284  0.69182712  1
  N  N28  1  0.66142237  0.83857763  0.44680877  1
  N  N29  1  0.83805454  0.66194547  0.18780678  1
  N  N30  1  0.66627948  0.83372051  0.94035247  1
  N  N31  1  0.83361221  0.66638780  0.69812578  1
