# generated using pymatgen
data_HfTiC2
_symmetry_space_group_name_H-M   'P 1'
_cell_length_a   11.07278406
_cell_length_b   11.07079645
_cell_length_c   5.56429447
_cell_angle_alpha   99.60291199
_cell_angle_beta   99.61111712
_cell_angle_gamma   33.62832155
_symmetry_Int_Tables_number   1
_chemical_formula_structural   HfTiC2
_chemical_formula_sum   'Hf8 Ti8 C16'
_cell_volume   371.96199283
_cell_formula_units_Z   8
loop_
 _symmetry_equiv_pos_site_id
 _symmetry_equiv_pos_as_xyz
  1  'x, y, z'
loop_
 _atom_site_type_symbol
 _atom_site_label
 _atom_site_symmetry_multiplicity
 _atom_site_fract_x
 _atom_site_fract_y
 _atom_site_fract_z
 _atom_site_occupancy
  C  C0  1  0.18342118  0.19388491  0.12197788  1
  C  C1  1  0.68776108  0.18744813  0.12488959  1
  C  C2  1  0.30443578  0.31339627  0.86907162  1
  C  C3  1  0.42853512  0.44623591  0.62516218  1
  C  C4  1  0.81705656  0.31744711  0.87851979  1
  C  C5  1  0.18736168  0.68755316  0.12407247  1
  C  C6  1  0.56471413  0.56524520  0.38241590  1
  C  C7  1  0.94212300  0.43092964  0.62793096  1
  C  C8  1  0.69245816  0.68227034  0.11584566  1
  C  C9  1  0.06464018  0.55521484  0.37759787  1
  C  C10  1  0.31521771  0.81465502  0.86511506  1
  C  C11  1  0.43242504  0.94245408  0.63412655  1
  C  C12  1  0.81464861  0.80555881  0.87553107  1
  C  C13  1  0.55461265  0.06305238  0.37030258  1
  C  C14  1  0.94625384  0.92882222  0.62568406  1
  C  C15  1  0.06476753  0.06549038  0.38223936  1
  Hf  Hf16  1  0.75087523  0.74553902  0.50082447  1
  Hf  Hf17  1  0.87641137  0.87049540  0.24903058  1
  Hf  Hf18  1  0.00337503  0.99999647  0.00017570  1
  Hf  Hf19  1  0.37520087  0.87806792  0.25087044  1
  Hf  Hf20  1  0.75182977  0.25208812  0.50313285  1
  Hf  Hf21  1  0.62214619  0.12429141  0.74846815  1
  Hf  Hf22  1  0.37065903  0.37564602  0.24813423  1
  Hf  Hf23  1  0.49978966  0.50339125  0.00044873  1
  Ti  Ti24  1  0.25126359  0.75115740  0.50295096  1
  Ti  Ti25  1  0.12597828  0.12790836  0.75041443  1
  Ti  Ti26  1  0.49553239  0.00089706  0.99703006  1
  Ti  Ti27  1  0.24618463  0.25132522  0.50140907  1
  Ti  Ti28  1  0.87839980  0.37533417  0.24979375  1
  Ti  Ti29  1  0.00017523  0.49606433  0.99638614  1
  Ti  Ti30  1  0.12451200  0.62297558  0.74916293  1
  Ti  Ti31  1  0.62723465  0.62516389  0.75128490  1
