# generated using pymatgen
data_HfTiC2
_symmetry_space_group_name_H-M   'P 1'
_cell_length_a   11.03278406
_cell_length_b   11.03079645
_cell_length_c   5.52429447
_cell_angle_alpha   99.60291196
_cell_angle_beta   99.61111715
_cell_angle_gamma   33.62832153
_symmetry_Int_Tables_number   1
_chemical_formula_structural   HfTiC2
_chemical_formula_sum   'Hf8 Ti8 C16'
_cell_volume   366.62457537
_cell_formula_units_Z   8
loop_
 _symmetry_equiv_pos_site_id
 _symmetry_equiv_pos_as_xyz
  1  'x, y, z'
loop_
 _atom_site_type_symbol
 _atom_site_label
 _atom_site_symmetry_multiplicity
 _atom_site_fract_x
 _atom_site_fract_y
 _atom_site_fract_z
 _atom_site_occupancy
  C  C0  1  0.18331423  0.19406535  0.12199270  1
  C  C1  1  0.68778028  0.18744612  0.12492315  1
  C  C2  1  0.30417842  0.31346260  0.86873729  1
  C  C3  1  0.42818459  0.44656792  0.62515053  1
  C  C4  1  0.81722004  0.31758197  0.87888897  1
  C  C5  1  0.18739326  0.68756540  0.12409464  1
  C  C6  1  0.56476502  0.56534149  0.38277294  1
  C  C7  1  0.94219734  0.43074064  0.62791588  1
  C  C8  1  0.69258768  0.68213379  0.11538949  1
  C  C9  1  0.06468123  0.55502870  0.37764034  1
  C  C10  1  0.31525750  0.81469800  0.86454429  1
  C  C11  1  0.43231504  0.94260674  0.63449785  1
  C  C12  1  0.81473481  0.80537578  0.87562166  1
  C  C13  1  0.55434859  0.06305686  0.36990574  1
  C  C14  1  0.94657076  0.92847468  0.62571339  1
  C  C15  1  0.06483404  0.06554570  0.38264581  1
  Hf  Hf16  1  0.75076633  0.74552080  0.50061243  1
  Hf  Hf17  1  0.87636807  0.87048371  0.24922688  1
  Hf  Hf18  1  0.00350544  0.00003763  0.00037044  1
  Hf  Hf19  1  0.37522839  0.87805967  0.25066126  1
  Hf  Hf20  1  0.75178606  0.25203846  0.50335689  1
  Hf  Hf21  1  0.62215503  0.12423851  0.74831919  1
  Hf  Hf22  1  0.37065763  0.37562535  0.24794173  1
  Hf  Hf23  1  0.49983213  0.50351084  0.00059704  1
  Ti  Ti24  1  0.25125036  0.75113934  0.50260806  1
  Ti  Ti25  1  0.12590827  0.12798247  0.75062221  1
  Ti  Ti26  1  0.49554719  0.00097308  0.99713584  1
  Ti  Ti27  1  0.24616788  0.25121201  0.50117413  1
  Ti  Ti28  1  0.87839881  0.37534926  0.25004868  1
  Ti  Ti29  1  0.00027600  0.49606565  0.99655006  1
  Ti  Ti30  1  0.12447447  0.62294558  0.74919823  1
  Ti  Ti31  1  0.62731509  0.62512593  0.75114226  1
