# generated using pymatgen
data_HfTiC2
_symmetry_space_group_name_H-M   'P 1'
_cell_length_a   11.06278406
_cell_length_b   11.06079646
_cell_length_c   5.55429447
_cell_angle_alpha   99.60291195
_cell_angle_beta   99.61111713
_cell_angle_gamma   33.62832154
_symmetry_Int_Tables_number   1
_chemical_formula_structural   HfTiC2
_chemical_formula_sum   'Hf8 Ti8 C16'
_cell_volume   370.62311388
_cell_formula_units_Z   8
loop_
 _symmetry_equiv_pos_site_id
 _symmetry_equiv_pos_as_xyz
  1  'x, y, z'
loop_
 _atom_site_type_symbol
 _atom_site_label
 _atom_site_symmetry_multiplicity
 _atom_site_fract_x
 _atom_site_fract_y
 _atom_site_fract_z
 _atom_site_occupancy
  C  C0  1  0.18334683  0.19398000  0.12191999  1
  C  C1  1  0.68776862  0.18744448  0.12489328  1
  C  C2  1  0.30430485  0.31343089  0.86892630  1
  C  C3  1  0.42833578  0.44643605  0.62518428  1
  C  C4  1  0.81712241  0.31751320  0.87863831  1
  C  C5  1  0.18737962  0.68754322  0.12406677  1
  C  C6  1  0.56470432  0.56531141  0.38258093  1
  C  C7  1  0.94219831  0.43081772  0.62794272  1
  C  C8  1  0.69252853  0.68219690  0.11562452  1
  C  C9  1  0.06466787  0.55512948  0.37766977  1
  C  C10  1  0.31524019  0.81465248  0.86483612  1
  C  C11  1  0.43236501  0.94253114  0.63433323  1
  C  C12  1  0.81467673  0.80548302  0.87558730  1
  C  C13  1  0.55449649  0.06306675  0.37017897  1
  C  C14  1  0.94644251  0.92862759  0.62568486  1
  C  C15  1  0.06479510  0.06552072  0.38238811  1
  Hf  Hf16  1  0.75084124  0.74554451  0.50073196  1
  Hf  Hf17  1  0.87637028  0.87050508  0.24915410  1
  Hf  Hf18  1  0.00344461  0.00000875  0.00024636  1
  Hf  Hf19  1  0.37519957  0.87804692  0.25076692  1
  Hf  Hf20  1  0.75181428  0.25206475  0.50322064  1
  Hf  Hf21  1  0.62215651  0.12425475  0.74839341  1
  Hf  Hf22  1  0.37067445  0.37561882  0.24805761  1
  Hf  Hf23  1  0.49980418  0.50345489  0.00055391  1
  Ti  Ti24  1  0.25127068  0.75114372  0.50288087  1
  Ti  Ti25  1  0.12595092  0.12793207  0.75047863  1
  Ti  Ti26  1  0.49554389  0.00093464  0.99708133  1
  Ti  Ti27  1  0.24618571  0.25131492  0.50135268  1
  Ti  Ti28  1  0.87840606  0.37532276  0.24980775  1
  Ti  Ti29  1  0.00021948  0.49605679  0.99640543  1
  Ti  Ti30  1  0.12451188  0.62296028  0.74917256  1
  Ti  Ti31  1  0.62723304  0.62515131  0.75124039  1
