# generated using pymatgen
data_HfTiC2
_symmetry_space_group_name_H-M   'P 1'
_cell_length_a   11.05278406
_cell_length_b   11.05079645
_cell_length_c   5.54429447
_cell_angle_alpha   99.60291198
_cell_angle_beta   99.61111713
_cell_angle_gamma   33.62832152
_symmetry_Int_Tables_number   1
_chemical_formula_structural   HfTiC2
_chemical_formula_sum   'Hf8 Ti8 C16'
_cell_volume   369.28725300
_cell_formula_units_Z   8
loop_
 _symmetry_equiv_pos_site_id
 _symmetry_equiv_pos_as_xyz
  1  'x, y, z'
loop_
 _atom_site_type_symbol
 _atom_site_label
 _atom_site_symmetry_multiplicity
 _atom_site_fract_x
 _atom_site_fract_y
 _atom_site_fract_z
 _atom_site_occupancy
  C  C0  1  0.18333470  0.19401029  0.12194735  1
  C  C1  1  0.68777215  0.18744546  0.12490339  1
  C  C2  1  0.30426143  0.31344197  0.86886306  1
  C  C3  1  0.42828569  0.44647785  0.62517352  1
  C  C4  1  0.81715542  0.31753723  0.87872603  1
  C  C5  1  0.18738424  0.68754984  0.12407325  1
  C  C6  1  0.56472983  0.56531880  0.38264343  1
  C  C7  1  0.94219561  0.43079319  0.62793110  1
  C  C8  1  0.69255027  0.68217329  0.11554565  1
  C  C9  1  0.06467197  0.55509515  0.37765870  1
  C  C10  1  0.31524709  0.81466806  0.86474162  1
  C  C11  1  0.43234979  0.94255569  0.63438861  1
  C  C12  1  0.81469735  0.80544611  0.87559859  1
  C  C13  1  0.55444632  0.06306300  0.37008546  1
  C  C14  1  0.94648321  0.92857678  0.62569503  1
  C  C15  1  0.06480587  0.06553264  0.38247227  1
  Hf  Hf16  1  0.75081569  0.74553682  0.50069124  1
  Hf  Hf17  1  0.87636838  0.87049895  0.24917855  1
  Hf  Hf18  1  0.00346437  0.00001975  0.00028900  1
  Hf  Hf19  1  0.37520972  0.87805060  0.25073056  1
  Hf  Hf20  1  0.75180438  0.25205562  0.50326572  1
  Hf  Hf21  1  0.62215644  0.12424907  0.74836936  1
  Hf  Hf22  1  0.37067051  0.37561982  0.24801940  1
  Hf  Hf23  1  0.49981472  0.50347314  0.00056800  1
  Ti  Ti24  1  0.25126315  0.75114252  0.50278750  1
  Ti  Ti25  1  0.12593523  0.12794929  0.75052753  1
  Ti  Ti26  1  0.49554430  0.00094914  0.99710012  1
  Ti  Ti27  1  0.24617884  0.25127996  0.50129141  1
  Ti  Ti28  1  0.87840196  0.37533317  0.24988984  1
  Ti  Ti29  1  0.00023904  0.49605965  0.99645499  1
  Ti  Ti30  1  0.12449932  0.62295555  0.74918230  1
  Ti  Ti31  1  0.62726296  0.62514158  0.75120744  1
