# generated using pymatgen
data_ZrC
_symmetry_space_group_name_H-M   'P 1'
_cell_length_a   9.47052027
_cell_length_b   9.47052102
_cell_length_c   4.76026125
_cell_angle_alpha   89.99996762
_cell_angle_beta   90.00000770
_cell_angle_gamma   90.00001646
_symmetry_Int_Tables_number   1
_chemical_formula_structural   ZrC
_chemical_formula_sum   'Zr16 C16'
_cell_volume   426.95145544
_cell_formula_units_Z   16
loop_
 _symmetry_equiv_pos_site_id
 _symmetry_equiv_pos_as_xyz
  1  'x, y, z'
loop_
 _atom_site_type_symbol
 _atom_site_label
 _atom_site_symmetry_multiplicity
 _atom_site_fract_x
 _atom_site_fract_y
 _atom_site_fract_z
 _atom_site_occupancy
  C  C0  1  0.25000000  0.25000000  0.50000000  1
  C  C1  1  0.25000000  0.50000000  0.99999999  1
  C  C2  1  0.50000000  0.25000000  0.00000000  1
  C  C3  1  0.50000000  0.50000000  0.49999999  1
  C  C4  1  0.25000000  0.75000000  0.50000000  1
  C  C5  1  0.25000000  0.00000000  0.99999999  1
  C  C6  1  0.50000000  0.75000000  0.00000000  1
  C  C7  1  0.50000000  0.00000000  0.49999999  1
  C  C8  1  0.75000000  0.25000000  0.50000000  1
  C  C9  1  0.75000000  0.50000000  0.99999999  1
  C  C10  1  0.00000000  0.25000000  0.00000000  1
  C  C11  1  0.00000000  0.50000000  0.49999999  1
  C  C12  1  0.75000000  0.75000000  0.50000000  1
  C  C13  1  0.75000000  0.00000000  0.99999999  1
  C  C14  1  0.00000000  0.75000000  0.00000000  1
  C  C15  1  0.00000000  0.00000000  0.49999999  1
  Zr  Zr16  1  0.49999999  0.00000001  0.99999998  1
  Zr  Zr17  1  0.00000002  0.25000000  0.49999999  1
  Zr  Zr18  1  0.25000000  0.50000000  0.50000002  1
  Zr  Zr19  1  0.24999999  0.25000000  0.00000003  1
  Zr  Zr20  1  0.49999999  0.50000001  0.99999998  1
  Zr  Zr21  1  0.00000002  0.75000000  0.49999999  1
  Zr  Zr22  1  0.25000000  0.00000000  0.50000002  1
  Zr  Zr23  1  0.24999999  0.75000000  0.00000003  1
  Zr  Zr24  1  0.99999999  0.00000001  0.99999998  1
  Zr  Zr25  1  0.50000002  0.25000000  0.49999999  1
  Zr  Zr26  1  0.75000000  0.50000000  0.50000002  1
  Zr  Zr27  1  0.74999999  0.25000000  0.00000003  1
  Zr  Zr28  1  0.99999999  0.50000001  0.99999998  1
  Zr  Zr29  1  0.50000002  0.75000000  0.49999999  1
  Zr  Zr30  1  0.75000000  0.00000000  0.50000002  1
  Zr  Zr31  1  0.74999999  0.75000000  0.00000003  1
