# generated using pymatgen
data_TaNi
_symmetry_space_group_name_H-M   'P 1'
_cell_length_a   7.20480257
_cell_length_b   9.13393363
_cell_length_c   9.17444060
_cell_angle_alpha   82.64691187
_cell_angle_beta   85.03610965
_cell_angle_gamma   79.11969893
_symmetry_Int_Tables_number   1
_chemical_formula_structural   TaNi
_chemical_formula_sum   'Ta20 Ni20'
_cell_volume   586.81724876
_cell_formula_units_Z   20
loop_
 _symmetry_equiv_pos_site_id
 _symmetry_equiv_pos_as_xyz
  1  'x, y, z'
loop_
 _atom_site_type_symbol
 _atom_site_label
 _atom_site_symmetry_multiplicity
 _atom_site_fract_x
 _atom_site_fract_y
 _atom_site_fract_z
 _atom_site_occupancy
  Ni  Ni0  1  0.98918624  0.01225162  0.03744319  1
  Ni  Ni1  1  0.76645896  0.98330302  0.25126233  1
  Ni  Ni2  1  0.51960105  0.98179557  0.46851534  1
  Ni  Ni3  1  0.37194482  0.06436795  0.21926514  1
  Ni  Ni4  1  0.29213901  0.00362625  0.72095993  1
  Ni  Ni5  1  -0.00170495  0.19474788  0.20909220  1
  Ni  Ni6  1  0.77981651  0.19092303  0.42720366  1
  Ni  Ni7  1  0.36001877  0.29806568  0.38836726  1
  Ni  Ni8  1  0.22830478  0.37568777  0.13563400  1
  Ni  Ni9  1  0.00305194  0.39228100  0.38711606  1
  Ni  Ni10  1  0.86109415  0.49462783  0.15027669  1
  Ni  Ni11  1  0.39207042  0.53129465  0.61870493  1
  Ni  Ni12  1  0.00033216  0.64549011  0.62335634  1
  Ni  Ni13  1  0.70972861  0.78494799  0.09501031  1
  Ni  Ni14  1  0.61505654  0.71440369  0.59274320  1
  Ni  Ni15  1  0.45659470  0.78125573  0.30464295  1
  Ni  Ni16  1  0.38523430  0.70822524  0.80932711  1
  Ni  Ni17  1  0.25606495  0.81081432  0.55176339  1
  Ni  Ni18  1  0.10914473  0.90192808  0.28702178  1
  Ni  Ni19  1  0.62579626  0.91438896  0.74722428  1
  Ta  Ta20  1  0.15717083  0.10367202  0.46383076  1
  Ta  Ta21  1  0.90294169  0.13452472  0.72899071  1
  Ta  Ta22  1  0.59927636  0.24875101  0.17972173  1
  Ta  Ta23  1  0.64746499  0.05077134  0.96318451  1
  Ta  Ta24  1  0.52438552  0.19400562  0.63874693  1
  Ta  Ta25  1  0.25267551  0.17523313  0.94659607  1
  Ta  Ta26  1  0.16819986  0.33884465  0.65688277  1
  Ta  Ta27  1  0.87813251  0.32709617  0.95160266  1
  Ta  Ta28  1  0.78699865  0.43639004  0.63099290  1
  Ta  Ta29  1  0.61287469  0.47232028  0.37927245  1
  Ta  Ta30  1  0.48547767  0.56487307  0.10310428  1
  Ta  Ta31  1  0.51558549  0.37289649  0.86839744  1
  Ta  Ta32  1  0.21282571  0.59898331  0.37726264  1
  Ta  Ta33  1  0.07001298  0.69816501  0.10497829  1
  Ta  Ta34  1  0.14505161  0.52278607  0.87999569  1
  Ta  Ta35  1  0.80964096  0.70258972  0.35944069  1
  Ta  Ta36  1  0.75312446  0.64621536  0.86430909  1
  Ta  Ta37  1  0.35644709  0.86802518  0.02529091  1
  Ta  Ta38  1  0.02645333  0.84556428  0.82097107  1
  Ta  Ta39  1  0.87532614  0.91386615  0.53149834  1
