# generated using pymatgen
data_Zr3WC4
_symmetry_space_group_name_H-M   'P 1'
_cell_length_a   9.52185108
_cell_length_b   6.33091871
_cell_length_c   5.85935928
_cell_angle_alpha   90.00000000
_cell_angle_beta   90.00000000
_cell_angle_gamma   120.08202397
_symmetry_Int_Tables_number   1
_chemical_formula_structural   Zr3WC4
_chemical_formula_sum   'Zr9 W3 C12'
_cell_volume   305.63939550
_cell_formula_units_Z   3
loop_
 _symmetry_equiv_pos_site_id
 _symmetry_equiv_pos_as_xyz
  1  'x, y, z'
loop_
 _atom_site_type_symbol
 _atom_site_label
 _atom_site_symmetry_multiplicity
 _atom_site_fract_x
 _atom_site_fract_y
 _atom_site_fract_z
 _atom_site_occupancy
  Zr  Zr0  1  0.00155949  0.00110504  0.00000000  1
  Zr  Zr1  1  0.00083916  0.00268113  0.50000000  1
  Zr  Zr2  1  0.00419156  0.49384087  0.00000000  1
  Zr  Zr3  1  0.00135309  0.51141838  0.50000000  1
  Zr  Zr4  1  0.34074426  0.99721032  0.00000000  1
  Zr  Zr5  1  0.33500981  0.50465617  0.50000000  1
  Zr  Zr6  1  0.66265721  0.99765056  0.50000000  1
  Zr  Zr7  1  0.67372035  0.49764720  0.00000000  1
  Zr  Zr8  1  0.65634020  0.49466255  0.50000000  1
  C  C9  1  0.23926458  0.17895121  0.24934532  1
  C  C10  1  0.23926458  0.17895121  0.75065468  1
  C  C11  1  0.23241090  0.67493230  0.25445453  1
  C  C12  1  0.23241090  0.67493230  0.74554547  1
  C  C13  1  0.54907317  0.15128052  0.26203782  1
  C  C14  1  0.54907317  0.15128052  0.73796218  1
  C  C15  1  0.54817524  0.67265290  0.22004249  1
  C  C16  1  0.54817524  0.67265290  0.77995751  1
  C  C17  1  0.87158306  0.15103255  0.23621615  1
  C  C18  1  0.87158306  0.15103255  0.76378385  1
  C  C19  1  0.88900678  0.66865232  0.25469179  1
  C  C20  1  0.88900678  0.66865232  0.74530821  1
  W  W21  1  0.33217603  0.00663775  0.50000000  1
  W  W22  1  0.34011650  0.50803394  0.00000000  1
  W  W23  1  0.65893154  0.98945241  0.00000000  1
