# generated using pymatgen
data_Ta3WC4
_symmetry_space_group_name_H-M   'P 1'
_cell_length_a   9.06360748
_cell_length_b   6.03204239
_cell_length_c   5.75023197
_cell_angle_alpha   90.00000000
_cell_angle_beta   90.00000000
_cell_angle_gamma   119.99895581
_symmetry_Int_Tables_number   1
_chemical_formula_structural   Ta3WC4
_chemical_formula_sum   'Ta9 W3 C12'
_cell_volume   272.26137911
_cell_formula_units_Z   3
loop_
 _symmetry_equiv_pos_site_id
 _symmetry_equiv_pos_as_xyz
  1  'x, y, z'
loop_
 _atom_site_type_symbol
 _atom_site_label
 _atom_site_symmetry_multiplicity
 _atom_site_fract_x
 _atom_site_fract_y
 _atom_site_fract_z
 _atom_site_occupancy
  Ta  Ta0  1  0.00555299  0.00411925  0.00000000  1
  Ta  Ta1  1  0.00439484  0.50315210  0.00000000  1
  Ta  Ta2  1  0.00067236  0.50067166  0.50000000  1
  Ta  Ta3  1  0.33160721  -0.00063735  0.50000000  1
  Ta  Ta4  1  0.33080339  0.49690128  0.50000000  1
  Ta  Ta5  1  0.66034174  0.99533529  0.00000000  1
  Ta  Ta6  1  0.67092147  0.00151063  0.50000000  1
  Ta  Ta7  1  0.65977778  0.49430988  0.00000000  1
  Ta  Ta8  1  0.67166665  0.50595891  0.50000000  1
  C  C9  1  0.22373856  0.16745046  0.24665112  1
  C  C10  1  0.22373856  0.16745046  0.75334888  1
  C  C11  1  0.22589504  0.66968004  0.23954959  1
  C  C12  1  0.22589504  0.66968004  0.76045041  1
  C  C13  1  0.55156210  0.16362658  0.25135212  1
  C  C14  1  0.55156210  0.16362658  0.74864788  1
  C  C15  1  0.55107741  0.66306446  0.24917941  1
  C  C16  1  0.55107741  0.66306446  0.75082059  1
  C  C17  1  0.89022536  0.16438608  0.25285476  1
  C  C18  1  0.89022536  0.16438608  0.74714524  1
  C  C19  1  0.89034116  0.67109922  0.25185325  1
  C  C20  1  0.89034116  0.67109922  0.74814675  1
  W  W21  1  0.99821105  0.99934067  0.50000000  1
  W  W22  1  0.33366447  0.99958988  0.00000000  1
  W  W23  1  0.33337344  0.50113416  0.00000000  1
