# generated using pymatgen
data_V3WC4
_symmetry_space_group_name_H-M   'P 1'
_cell_length_a   8.59481599
_cell_length_b   5.70938315
_cell_length_c   5.44505756
_cell_angle_alpha   90.00000000
_cell_angle_beta   90.00000000
_cell_angle_gamma   120.11378653
_symmetry_Int_Tables_number   1
_chemical_formula_structural   V3WC4
_chemical_formula_sum   'V9 W3 C12'
_cell_volume   231.13184138
_cell_formula_units_Z   3
loop_
 _symmetry_equiv_pos_site_id
 _symmetry_equiv_pos_as_xyz
  1  'x, y, z'
loop_
 _atom_site_type_symbol
 _atom_site_label
 _atom_site_symmetry_multiplicity
 _atom_site_fract_x
 _atom_site_fract_y
 _atom_site_fract_z
 _atom_site_occupancy
  V  V0  1  0.99994600  0.99990817  -0.00000000  1
  V  V1  1  0.00102489  0.00285293  0.50000000  1
  V  V2  1  0.00027082  0.50044035  -0.00000000  1
  V  V3  1  0.33327933  0.99990817  -0.00000000  1
  V  V4  1  0.33435822  0.00285293  0.50000000  1
  V  V5  1  0.33360415  0.50044035  -0.00000000  1
  V  V6  1  0.66661267  0.99990817  -0.00000000  1
  V  V7  1  0.66769156  0.00285293  0.50000000  1
  V  V8  1  0.66693749  0.50044035  -0.00000000  1
  C  C9  1  0.22112205  0.16360816  0.24515809  1
  C  C10  1  0.22112205  0.16360816  0.75484191  1
  C  C11  1  0.22317834  0.66947394  0.24709975  1
  C  C12  1  0.22317834  0.66947394  0.75290025  1
  C  C13  1  0.55445539  0.16360816  0.24515809  1
  C  C14  1  0.55445539  0.16360816  0.75484191  1
  C  C15  1  0.55651168  0.66947394  0.24709975  1
  C  C16  1  0.55651168  0.66947394  0.75290025  1
  C  C17  1  0.88778872  0.16360816  0.24515809  1
  C  C18  1  0.88778872  0.16360816  0.75484191  1
  C  C19  1  0.88984501  0.66947394  0.24709975  1
  C  C20  1  0.88984501  0.66947394  0.75290025  1
  W  W21  1  0.99904637  0.49730105  0.50000000  1
  W  W22  1  0.33237970  0.49730105  0.50000000  1
  W  W23  1  0.66571304  0.49730105  0.50000000  1
