# generated using pymatgen
data_HfNi
_symmetry_space_group_name_H-M   'P 1'
_cell_length_a   7.52829432
_cell_length_b   10.81804882
_cell_length_c   9.30916083
_cell_angle_alpha   62.73407448
_cell_angle_beta   79.82001578
_cell_angle_gamma   78.62893000
_symmetry_Int_Tables_number   1
_chemical_formula_structural   HfNi
_chemical_formula_sum   'Hf20 Ni20'
_cell_volume   657.42839010
_cell_formula_units_Z   20
loop_
 _symmetry_equiv_pos_site_id
 _symmetry_equiv_pos_as_xyz
  1  'x, y, z'
loop_
 _atom_site_type_symbol
 _atom_site_label
 _atom_site_symmetry_multiplicity
 _atom_site_fract_x
 _atom_site_fract_y
 _atom_site_fract_z
 _atom_site_occupancy
  Ni  Ni0  1  0.00850366  0.87631329  0.05120657  1
  Ni  Ni1  1  0.82896333  0.06728161  0.12478122  1
  Ni  Ni2  1  0.45980637  0.98531537  0.53186993  1
  Ni  Ni3  1  0.38684198  0.05308827  0.24267805  1
  Ni  Ni4  1  0.26069179  0.02075517  0.77562120  1
  Ni  Ni5  1  0.99357146  0.16616473  0.24916926  1
  Ni  Ni6  1  0.82808478  0.23571190  0.46370842  1
  Ni  Ni7  1  0.32226843  0.41162433  0.32168573  1
  Ni  Ni8  1  0.24401026  0.33065397  0.10105989  1
  Ni  Ni9  1  0.98023013  0.43491369  0.42338703  1
  Ni  Ni10  1  0.83610169  0.42147807  0.17869441  1
  Ni  Ni11  1  0.45600176  0.57373873  0.59028961  1
  Ni  Ni12  1  0.96711141  0.72474314  0.57256156  1
  Ni  Ni13  1  0.71056542  0.70894559  0.09399925  1
  Ni  Ni14  1  0.61410658  0.75414904  0.58147901  1
  Ni  Ni15  1  0.46038441  0.80131427  0.29498197  1
  Ni  Ni16  1  0.37329373  0.74677046  0.79566829  1
  Ni  Ni17  1  0.25869918  0.82380225  0.52931356  1
  Ni  Ni18  1  0.08767342  0.90874225  0.29304520  1
  Ni  Ni19  1  0.60695871  0.89012724  0.79097827  1
  Hf  Hf20  1  0.18276996  0.17269021  0.44832706  1
  Hf  Hf21  1  0.90227536  0.16699247  0.76774534  1
  Hf  Hf22  1  0.58714218  0.21670536  0.26036795  1
  Hf  Hf23  1  0.62564644  0.97961999  0.01251225  1
  Hf  Hf24  1  0.54168910  0.15613318  0.64082387  1
  Hf  Hf25  1  0.20064817  0.09548977  0.01297945  1
  Hf  Hf26  1  0.19972035  0.34582309  0.66169104  1
  Hf  Hf27  1  0.89648206  0.33059323  0.96784779  1
  Hf  Hf28  1  0.79749683  0.49609791  0.64120065  1
  Hf  Hf29  1  0.60383609  0.48779308  0.36848089  1
  Hf  Hf30  1  0.48988788  0.50633279  0.02504152  1
  Hf  Hf31  1  0.51718107  0.29320608  0.89034009  1
  Hf  Hf32  1  0.20289582  0.63807211  0.39742831  1
  Hf  Hf33  1  0.07056641  0.58484278  0.11580130  1
  Hf  Hf34  1  0.18845483  0.56003520  0.79805331  1
  Hf  Hf35  1  0.80886638  0.76091975  0.31795572  1
  Hf  Hf36  1  0.79290348  0.65201963  0.85072273  1
  Hf  Hf37  1  0.35935337  0.78642331  0.04485410  1
  Hf  Hf38  1  0.03212033  0.86466747  0.78358319  1
  Hf  Hf39  1  0.81619539  0.96990922  0.48806508  1
