# generated using pymatgen
data_Y3WC4
_symmetry_space_group_name_H-M   'P 1'
_cell_length_a   10.68396855
_cell_length_b   6.99559765
_cell_length_c   5.23012500
_cell_angle_alpha   90.00000000
_cell_angle_beta   90.00000000
_cell_angle_gamma   119.43250247
_symmetry_Int_Tables_number   1
_chemical_formula_structural   Y3WC4
_chemical_formula_sum   'Y9 W3 C12'
_cell_volume   340.45156335
_cell_formula_units_Z   3
loop_
 _symmetry_equiv_pos_site_id
 _symmetry_equiv_pos_as_xyz
  1  'x, y, z'
loop_
 _atom_site_type_symbol
 _atom_site_label
 _atom_site_symmetry_multiplicity
 _atom_site_fract_x
 _atom_site_fract_y
 _atom_site_fract_z
 _atom_site_occupancy
  W  W0  1  0.95162262  0.02145408  0.00000000  1
  W  W1  1  0.28921875  0.00879543  0.00000000  1
  W  W2  1  0.77328692  0.89239363  0.50000000  1
  C  C3  1  0.17673405  0.17906434  0.15046560  1
  C  C4  1  0.17673405  0.17906434  0.84953440  1
  C  C5  1  0.19977445  0.72395846  0.23523545  1
  C  C6  1  0.19977445  0.72395846  0.76476455  1
  C  C7  1  0.50338146  0.19300437  0.15615238  1
  C  C8  1  0.50338146  0.19300437  0.84384762  1
  C  C9  1  0.55367601  0.72347431  0.34794552  1
  C  C10  1  0.55367601  0.72347431  0.65205448  1
  C  C11  1  0.86538225  0.18269569  0.25335614  1
  C  C12  1  0.86538225  0.18269569  0.74664386  1
  C  C13  1  0.86119733  0.73745958  0.25207914  1
  C  C14  1  0.86119733  0.73745958  0.74792086  1
  Y  Y15  1  0.08591178  0.89359055  0.50000000  1
  Y  Y16  1  0.96917700  0.54066890  0.00000000  1
  Y  Y17  1  0.09215970  0.38231081  0.50000000  1
  Y  Y18  1  0.41827492  0.89918927  0.50000000  1
  Y  Y19  1  0.32021631  0.56038203  0.00000000  1
  Y  Y20  1  0.40848511  0.35067275  0.50000000  1
  Y  Y21  1  0.64316900  0.02426787  0.00000000  1
  Y  Y22  1  0.64000227  0.56638177  0.00000000  1
  Y  Y23  1  0.75485121  0.38057945  0.50000000  1
