# generated using pymatgen
data_WC
_symmetry_space_group_name_H-M   'P 1'
_cell_length_a   8.77911195
_cell_length_b   5.85523979
_cell_length_c   5.69270544
_cell_angle_alpha   90.00000000
_cell_angle_beta   90.00000000
_cell_angle_gamma   120.00811862
_symmetry_Int_Tables_number   1
_chemical_formula_structural   WC
_chemical_formula_sum   'W12 C12'
_cell_volume   253.40144208
_cell_formula_units_Z   12
loop_
 _symmetry_equiv_pos_site_id
 _symmetry_equiv_pos_as_xyz
  1  'x, y, z'
loop_
 _atom_site_type_symbol
 _atom_site_label
 _atom_site_symmetry_multiplicity
 _atom_site_fract_x
 _atom_site_fract_y
 _atom_site_fract_z
 _atom_site_occupancy
  W  W0  1  0.99997972  0.99990792  0.00000000  1
  W  W1  1  0.99997972  0.99990792  0.50000000  1
  W  W2  1  0.99997972  0.49990792  0.00000000  1
  W  W3  1  0.99997972  0.49990792  0.50000000  1
  W  W4  1  0.33331305  0.99990792  0.00000000  1
  W  W5  1  0.33331305  0.99990792  0.50000000  1
  W  W6  1  0.33331305  0.49990792  0.00000000  1
  W  W7  1  0.33331305  0.49990792  0.50000000  1
  W  W8  1  0.66664639  0.99990792  0.00000000  1
  W  W9  1  0.66664639  0.99990792  0.50000000  1
  W  W10  1  0.66664639  0.49990792  0.00000000  1
  W  W11  1  0.66664639  0.49990792  0.50000000  1
  C  C12  1  0.22224250  0.16675874  0.25000000  1
  C  C13  1  0.22224250  0.16675874  0.75000000  1
  C  C14  1  0.22224250  0.66675875  0.25000000  1
  C  C15  1  0.22224250  0.66675875  0.75000000  1
  C  C16  1  0.55557584  0.16675874  0.25000000  1
  C  C17  1  0.55557584  0.16675874  0.75000000  1
  C  C18  1  0.55557584  0.66675875  0.25000000  1
  C  C19  1  0.55557584  0.66675875  0.75000000  1
  C  C20  1  0.88890917  0.16675874  0.25000000  1
  C  C21  1  0.88890917  0.16675874  0.75000000  1
  C  C22  1  0.88890917  0.66675875  0.25000000  1
  C  C23  1  0.88890917  0.66675875  0.75000000  1
