# generated using pymatgen
data_Nb3WC4
_symmetry_space_group_name_H-M   'P 1'
_cell_length_a   9.03658151
_cell_length_b   6.03398735
_cell_length_c   5.75109620
_cell_angle_alpha   90.00000000
_cell_angle_beta   90.00000000
_cell_angle_gamma   119.95529035
_symmetry_Int_Tables_number   1
_chemical_formula_structural   Nb3WC4
_chemical_formula_sum   'Nb9 W3 C12'
_cell_volume   271.69729412
_cell_formula_units_Z   3
loop_
 _symmetry_equiv_pos_site_id
 _symmetry_equiv_pos_as_xyz
  1  'x, y, z'
loop_
 _atom_site_type_symbol
 _atom_site_label
 _atom_site_symmetry_multiplicity
 _atom_site_fract_x
 _atom_site_fract_y
 _atom_site_fract_z
 _atom_site_occupancy
  W  W0  1  0.99850262  0.99798623  0.00000000  1
  W  W1  1  0.33385063  0.50341941  0.50000000  1
  W  W2  1  0.66302719  0.99556745  0.50000000  1
  C  C3  1  0.22045165  0.16919576  0.25083336  1
  C  C4  1  0.22045165  0.16919576  0.74916664  1
  C  C5  1  0.22384317  0.66461566  0.25788720  1
  C  C6  1  0.22384317  0.66461566  0.74211280  1
  C  C7  1  0.55841690  0.16459588  0.24835013  1
  C  C8  1  0.55841690  0.16459588  0.75164987  1
  C  C9  1  0.55347936  0.66871718  0.26165543  1
  C  C10  1  0.55347936  0.66871718  0.73834457  1
  C  C11  1  0.88651812  0.16080035  0.24867627  1
  C  C12  1  0.88651812  0.16080035  0.75132373  1
  C  C13  1  0.89164547  0.67340487  0.24255625  1
  C  C14  1  0.89164547  0.67340487  0.75744375  1
  Nb  Nb15  1  0.99944255  0.00331631  0.50000000  1
  Nb  Nb16  1  0.00235091  0.50216910  0.00000000  1
  Nb  Nb17  1  0.99877340  0.49431030  0.50000000  1
  Nb  Nb18  1  0.32992886  0.99823270  0.00000000  1
  Nb  Nb19  1  0.33950755  0.00312682  0.50000000  1
  Nb  Nb20  1  0.33036751  0.49694401  0.00000000  1
  Nb  Nb21  1  0.66804756  0.99905917  0.00000000  1
  Nb  Nb22  1  0.66767050  0.50344523  0.00000000  1
  Nb  Nb23  1  0.66648804  0.49976385  0.50000000  1
