# generated using pymatgen
data_Ni3WC4
_symmetry_space_group_name_H-M   'P 1'
_cell_length_a   8.49108228
_cell_length_b   5.64356248
_cell_length_c   5.21078798
_cell_angle_alpha   90.00000000
_cell_angle_beta   90.00000000
_cell_angle_gamma   119.34629365
_symmetry_Int_Tables_number   1
_chemical_formula_structural   Ni3WC4
_chemical_formula_sum   'Ni9 W3 C12'
_cell_volume   217.65751745
_cell_formula_units_Z   3
loop_
 _symmetry_equiv_pos_site_id
 _symmetry_equiv_pos_as_xyz
  1  'x, y, z'
loop_
 _atom_site_type_symbol
 _atom_site_label
 _atom_site_symmetry_multiplicity
 _atom_site_fract_x
 _atom_site_fract_y
 _atom_site_fract_z
 _atom_site_occupancy
  Ni  Ni0  1  0.99802555  0.00534787  0.00000000  1
  Ni  Ni1  1  0.99938213  0.98717974  0.50000000  1
  Ni  Ni2  1  0.99805089  0.49137768  0.00000000  1
  Ni  Ni3  1  0.00181467  0.50993405  0.50000000  1
  Ni  Ni4  1  0.33471525  0.99629246  0.50000000  1
  Ni  Ni5  1  0.33325022  0.49594536  0.00000000  1
  Ni  Ni6  1  0.32587055  0.50090232  0.50000000  1
  Ni  Ni7  1  0.67216532  0.00943073  0.00000000  1
  Ni  Ni8  1  0.68094270  0.51683747  0.50000000  1
  C  C9  1  0.21974711  0.16846673  0.26758436  1
  C  C10  1  0.21974711  0.16846673  0.73241564  1
  C  C11  1  0.21459922  0.64983531  0.24865351  1
  C  C12  1  0.21459922  0.64983531  0.75134649  1
  C  C13  1  0.55136191  0.16457992  0.24459273  1
  C  C14  1  0.55136191  0.16457992  0.75540727  1
  C  C15  1  0.55297789  0.66365571  0.25813073  1
  C  C16  1  0.55297789  0.66365571  0.74186927  1
  C  C17  1  0.89677229  0.17116237  0.25017423  1
  C  C18  1  0.89677229  0.17116237  0.74982577  1
  C  C19  1  0.89807979  0.67484482  0.24887478  1
  C  C20  1  0.89807979  0.67484482  0.75112522  1
  W  W21  1  0.31868962  0.98947411  0.00000000  1
  W  W22  1  0.66786822  0.00384292  0.50000000  1
  W  W23  1  0.66881507  0.50834551  0.00000000  1
