# generated using pymatgen
data_Ti7FeN8
_symmetry_space_group_name_H-M   'P 1'
_cell_length_a   6.00569553
_cell_length_b   6.00570066
_cell_length_c   8.50027420
_cell_angle_alpha   90.01780954
_cell_angle_beta   89.98206424
_cell_angle_gamma   90.08865484
_symmetry_Int_Tables_number   1
_chemical_formula_structural   Ti7FeN8
_chemical_formula_sum   'Ti14 Fe2 N16'
_cell_volume   306.59097464
_cell_formula_units_Z   2
loop_
 _symmetry_equiv_pos_site_id
 _symmetry_equiv_pos_as_xyz
  1  'x, y, z'
loop_
 _atom_site_type_symbol
 _atom_site_label
 _atom_site_symmetry_multiplicity
 _atom_site_fract_x
 _atom_site_fract_y
 _atom_site_fract_z
 _atom_site_occupancy
  Fe  Fe0  1  0.48975855  0.51024099  0.49925084  1
  Fe  Fe1  1  0.26024145  0.73975901  0.25074916  1
  N  N2  1  0.75446850  0.75262733  0.50008433  1
  N  N3  1  0.75466009  0.24533989  0.49952370  1
  N  N4  1  0.24323262  0.75676729  0.50347271  1
  N  N5  1  0.24737258  0.24553121  0.50008419  1
  N  N6  1  0.50676738  0.49323271  0.24652729  1
  N  N7  1  0.50262742  0.00446879  0.24991581  1
  N  N8  1  0.74925820  0.74988142  0.00035407  1
  N  N9  1  0.75020404  0.24979620  0.00062544  1
  N  N10  1  0.99553150  0.49737267  0.24991567  1
  N  N11  1  0.99533991  0.00466011  0.25047630  1
  N  N12  1  0.24918972  0.75081013  0.99630344  1
  N  N13  1  0.25011821  0.25074209  0.00035427  1
  N  N14  1  0.50081028  0.49918987  0.75369656  1
  N  N15  1  0.49988179  0.99925791  0.74964573  1
  N  N16  1  0.00074180  0.50011858  0.74964593  1
  N  N17  1  0.99979596  0.00020380  0.74937456  1
  Ti  Ti18  1  0.74878713  0.25121290  0.74706824  1
  Ti  Ti19  1  0.74966412  0.74899324  0.74828149  1
  Ti  Ti20  1  0.25100652  0.25033614  0.74828151  1
  Ti  Ti21  1  0.25215594  0.74784397  0.74812641  1
  Ti  Ti22  1  0.49786063  0.99732037  0.49875094  1
  Ti  Ti23  1  0.74754389  0.25245559  0.25445772  1
  Ti  Ti24  1  0.74732046  0.74786107  0.25124851  1
  Ti  Ti25  1  0.00245611  0.99754441  0.49554228  1
  Ti  Ti26  1  0.00267954  0.50213893  0.49875149  1
  Ti  Ti27  1  0.25213937  0.25267963  0.25124906  1
  Ti  Ti28  1  0.49899348  0.99966386  0.00171849  1
  Ti  Ti29  1  0.49784406  0.50215603  0.00187359  1
  Ti  Ti30  1  0.00121287  0.99878710  0.00293176  1
  Ti  Ti31  1  0.00033588  0.50100676  0.00171851  1
