# generated using pymatgen
data_HfAl7N8
_symmetry_space_group_name_H-M   'P 1'
_cell_length_a   6.37639938
_cell_length_b   6.37630327
_cell_length_c   10.22729079
_cell_angle_alpha   89.95414785
_cell_angle_beta   90.04695572
_cell_angle_gamma   120.01435504
_symmetry_Int_Tables_number   1
_chemical_formula_structural   HfAl7N8
_chemical_formula_sum   'Hf2 Al14 N16'
_cell_volume   360.05818042
_cell_formula_units_Z   2
loop_
 _symmetry_equiv_pos_site_id
 _symmetry_equiv_pos_as_xyz
  1  'x, y, z'
loop_
 _atom_site_type_symbol
 _atom_site_label
 _atom_site_symmetry_multiplicity
 _atom_site_fract_x
 _atom_site_fract_y
 _atom_site_fract_z
 _atom_site_occupancy
  Al  Al0  1  0.16637063  0.32922570  0.24553289  1
  Al  Al1  1  0.33459519  0.16672392  0.99574516  1
  Al  Al2  1  0.17085605  0.33351920  0.74555857  1
  Al  Al3  1  0.33323423  0.16537121  0.49571468  1
  Al  Al4  1  0.16438375  0.83732603  0.24309192  1
  Al  Al5  1  0.31946500  0.65715453  0.00654138  1
  Al  Al6  1  0.16493967  0.83433487  0.75272371  1
  Al  Al7  1  0.66561720  0.33514023  0.25273624  1
  Al  Al8  1  0.66276111  0.33558799  0.74308554  1
  Al  Al9  1  0.84286413  0.18062849  0.50658263  1
  Al  Al10  1  0.67235744  0.83401207  0.25784430  1
  Al  Al11  1  0.83592143  0.65871585  0.00487992  1
  Al  Al12  1  0.66605828  0.82754753  0.75784611  1
  Al  Al13  1  0.84124740  0.66410392  0.50485163  1
  Hf  Hf14  1  0.31847666  0.66030770  0.49426230  1
  Hf  Hf15  1  0.83966330  0.18151197  0.99423478  1
  N  N16  1  0.16178129  0.31078587  0.43070565  1
  N  N17  1  0.33601814  0.16887900  0.18347825  1
  N  N18  1  0.18922061  0.33819449  0.93072630  1
  N  N19  1  0.33121556  0.16392576  0.68345489  1
  N  N20  1  0.15906642  0.84885372  0.42907189  1
  N  N21  1  0.33755787  0.66918863  0.20153353  1
  N  N22  1  0.16844243  0.83864739  0.94031824  1
  N  N23  1  0.33831748  0.67139659  0.70078655  1
  N  N24  1  0.66130504  0.33158271  0.44032332  1
  N  N25  1  0.82848996  0.16173831  0.20076793  1
  N  N26  1  0.65109639  0.34089588  0.92906930  1
  N  N27  1  0.83088684  0.16237704  0.70158418  1
  N  N28  1  0.68977687  0.84587068  0.44770345  1
  N  N29  1  0.83023673  0.66652256  0.19378646  1
  N  N30  1  0.65420704  0.81020057  0.94769648  1
  N  N31  1  0.83356989  0.66972954  0.69376186  1
