# generated using pymatgen
data_Al7ReN8
_symmetry_space_group_name_H-M   'P 1'
_cell_length_a   5.82931219
_cell_length_b   5.82931220
_cell_length_c   8.20219854
_cell_angle_alpha   89.36765907
_cell_angle_beta   90.63234091
_cell_angle_gamma   89.36079706
_symmetry_Int_Tables_number   1
_chemical_formula_structural   Al7ReN8
_chemical_formula_sum   'Al14 Re2 N16'
_cell_volume   278.66625498
_cell_formula_units_Z   2
loop_
 _symmetry_equiv_pos_site_id
 _symmetry_equiv_pos_as_xyz
  1  'x, y, z'
loop_
 _atom_site_type_symbol
 _atom_site_label
 _atom_site_symmetry_multiplicity
 _atom_site_fract_x
 _atom_site_fract_y
 _atom_site_fract_z
 _atom_site_occupancy
  Re  Re0  1  0.48311698  0.51688302  0.48457503  1
  Re  Re1  1  0.26688302  0.73311698  0.26542497  1
  N  N2  1  0.75630510  0.76305437  0.49857153  1
  N  N3  1  0.74889260  0.25110740  0.50320004  1
  N  N4  1  0.22976112  0.77023888  0.51879715  1
  N  N5  1  0.23694563  0.24369490  0.49857153  1
  N  N6  1  0.52023888  0.47976112  0.23120285  1
  N  N7  1  0.51305437  0.00630510  0.25142847  1
  N  N8  1  0.75153544  0.74934250  0.99890191  1
  N  N9  1  0.75273287  0.24726713  0.99682075  1
  N  N10  1  0.99369490  0.48694563  0.25142847  1
  N  N11  1  0.00110740  0.99889260  0.24679996  1
  N  N12  1  0.25101799  0.74898201  0.99816388  1
  N  N13  1  0.25065750  0.24846456  0.99890191  1
  N  N14  1  0.49898201  0.50101799  0.75183612  1
  N  N15  1  0.49934250  0.00153544  0.75109809  1
  N  N16  1  0.99846456  0.50065750  0.75109809  1
  N  N17  1  0.99726713  0.00273287  0.75317925  1
  Al  Al18  1  0.74977240  0.25022760  0.75180625  1
  Al  Al19  1  0.74940440  0.75264285  0.75042700  1
  Al  Al20  1  0.24735715  0.25059560  0.75042700  1
  Al  Al21  1  0.24632363  0.75367637  0.75485635  1
  Al  Al22  1  0.49761253  0.00629650  0.50285821  1
  Al  Al23  1  0.75670862  0.24329138  0.24730009  1
  Al  Al24  1  0.75629650  0.74761253  0.24714179  1
  Al  Al25  1  0.99329138  0.00670862  0.50269991  1
  Al  Al26  1  0.99370350  0.50238747  0.50285821  1
  Al  Al27  1  0.25238747  0.24370350  0.24714179  1
  Al  Al28  1  0.50264285  0.99940440  0.99957300  1
  Al  Al29  1  0.50367637  0.49632363  0.99514365  1
  Al  Al30  1  0.00022760  0.99977240  0.99819375  1
  Al  Al31  1  0.00059560  0.49735715  0.99957300  1
