# generated using pymatgen
data_Al7CoN8
_symmetry_space_group_name_H-M   'P 1'
_cell_length_a   6.26334498
_cell_length_b   6.26334497
_cell_length_c   10.04249363
_cell_angle_alpha   89.52854970
_cell_angle_beta   90.47145047
_cell_angle_gamma   119.87320910
_symmetry_Int_Tables_number   1
_chemical_formula_structural   Al7CoN8
_chemical_formula_sum   'Al14 Co2 N16'
_cell_volume   341.60064689
_cell_formula_units_Z   2
loop_
 _symmetry_equiv_pos_site_id
 _symmetry_equiv_pos_as_xyz
  1  'x, y, z'
loop_
 _atom_site_type_symbol
 _atom_site_label
 _atom_site_symmetry_multiplicity
 _atom_site_fract_x
 _atom_site_fract_y
 _atom_site_fract_z
 _atom_site_occupancy
  Al  Al0  1  0.16435140  0.33564859  0.24945916  1
  Al  Al1  1  0.33397381  0.16602619  0.49774804  1
  Al  Al2  1  0.16540533  0.83314589  0.24920955  1
  Al  Al3  1  0.33632209  0.67491813  0.00157431  1
  Al  Al4  1  0.16685643  0.83046480  0.74978385  1
  Al  Al5  1  0.33380499  0.66449538  0.50046212  1
  Al  Al6  1  0.66685411  0.33459467  0.24920955  1
  Al  Al7  1  0.82508186  0.16367789  0.00157431  1
  Al  Al8  1  0.66953519  0.33314356  0.74978385  1
  Al  Al9  1  0.83550463  0.16619501  0.50046213  1
  Al  Al10  1  0.66644378  0.83355622  0.25106882  1
  Al  Al11  1  0.83220475  0.66779527  0.00110211  1
  Al  Al12  1  0.66927765  0.83072236  0.75116826  1
  Al  Al13  1  0.83409721  0.66590278  0.49952153  1
  Co  Co14  1  0.32827494  0.17172506  0.99813410  1
  Co  Co15  1  0.17193240  0.32806760  0.75716946  1
  N  N16  1  0.16654845  0.33345156  0.43947654  1
  N  N17  1  0.33077636  0.16922364  0.19283909  1
  N  N18  1  0.16096833  0.33903167  0.94498966  1
  N  N19  1  0.33964668  0.16035333  0.68614935  1
  N  N20  1  0.16678605  0.83227131  0.43960600  1
  N  N21  1  0.33351159  0.66897854  0.19097016  1
  N  N22  1  0.16079070  0.82723933  0.93930319  1
  N  N23  1  0.33882957  0.66929128  0.69103011  1
  N  N24  1  0.66772869  0.33321394  0.43960600  1
  N  N25  1  0.83102147  0.16648840  0.19097015  1
  N  N26  1  0.67276067  0.33920930  0.93930319  1
  N  N27  1  0.83070871  0.16117043  0.69103011  1
  N  N28  1  0.66694541  0.83305460  0.44087522  1
  N  N29  1  0.83251904  0.66748097  0.19101291  1
  N  N30  1  0.66584634  0.83415365  0.94155662  1
  N  N31  1  0.83469135  0.66530864  0.68985062  1
