# generated using pymatgen
data_Al7CrN8
_symmetry_space_group_name_H-M   'P 1'
_cell_length_a   6.28733975
_cell_length_b   6.27552249
_cell_length_c   10.07250096
_cell_angle_alpha   89.99999998
_cell_angle_beta   89.81586190
_cell_angle_gamma   119.93784510
_symmetry_Int_Tables_number   1
_chemical_formula_structural   Al7CrN8
_chemical_formula_sum   'Al14 Cr2 N16'
_cell_volume   344.39231054
_cell_formula_units_Z   2
loop_
 _symmetry_equiv_pos_site_id
 _symmetry_equiv_pos_as_xyz
  1  'x, y, z'
loop_
 _atom_site_type_symbol
 _atom_site_label
 _atom_site_symmetry_multiplicity
 _atom_site_fract_x
 _atom_site_fract_y
 _atom_site_fract_z
 _atom_site_occupancy
  Al  Al0  1  0.16619478  0.33309738  0.24988368  1
  Al  Al1  1  0.33285673  0.16642758  0.00086734  1
  Al  Al2  1  0.17084583  0.33542291  0.75252866  1
  Al  Al3  1  0.33024703  0.16512193  0.49956747  1
  Al  Al4  1  0.16619020  0.83309509  0.24988368  1
  Al  Al5  1  0.33285673  0.66642917  0.00086734  1
  Al  Al6  1  0.17083372  0.83541685  0.75252766  1
  Al  Al7  1  0.33024703  0.66512511  0.49956747  1
  Al  Al8  1  0.66518943  0.33259431  0.24945383  1
  Al  Al9  1  0.83456805  0.16728403  0.00147051  1
  Al  Al10  1  0.83258309  0.16629155  0.49698101  1
  Al  Al11  1  0.66518943  0.83259510  0.24945383  1
  Al  Al12  1  0.83456573  0.66728287  0.00146787  1
  Al  Al13  1  0.83257565  0.66628783  0.49698158  1
  Cr  Cr14  1  0.67173451  0.33586196  0.74844075  1
  Cr  Cr15  1  0.67173451  0.83587254  0.74844075  1
  N  N16  1  0.16540732  0.33270366  0.43965722  1
  N  N17  1  0.33263365  0.16631572  0.19119203  1
  N  N18  1  0.16683856  0.33341927  0.94221462  1
  N  N19  1  0.32392643  0.16196089  0.68882675  1
  N  N20  1  0.16540007  0.83270003  0.43965736  1
  N  N21  1  0.33263365  0.66631795  0.19119203  1
  N  N22  1  0.16683615  0.83341807  0.94221366  1
  N  N23  1  0.32392643  0.66196556  0.68882675  1
  N  N24  1  0.66400027  0.33199860  0.44037986  1
  N  N25  1  0.83342553  0.16671278  0.19214901  1
  N  N26  1  0.66737958  0.33368852  0.94620668  1
  N  N27  1  0.84219562  0.17109781  0.68818388  1
  N  N28  1  0.66400027  0.83200165  0.44037986  1
  N  N29  1  0.83342240  0.66671122  0.19214645  1
  N  N30  1  0.66737958  0.83369105  0.94620668  1
  N  N31  1  0.84218202  0.67109101  0.68818379  1
