# generated using pymatgen
data_Al16V32C15
_symmetry_space_group_name_H-M   'P 1'
_cell_length_a   5.78878615
_cell_length_b   5.78878616
_cell_length_c   26.33834582
_cell_angle_alpha   90.00000000
_cell_angle_beta   90.00000000
_cell_angle_gamma   120.00000001
_symmetry_Int_Tables_number   1
_chemical_formula_structural   Al16V32C15
_chemical_formula_sum   'Al16 V32 C15'
_cell_volume   764.35329156
_cell_formula_units_Z   1
loop_
 _symmetry_equiv_pos_site_id
 _symmetry_equiv_pos_as_xyz
  1  'x, y, z'
loop_
 _atom_site_type_symbol
 _atom_site_label
 _atom_site_symmetry_multiplicity
 _atom_site_fract_x
 _atom_site_fract_y
 _atom_site_fract_z
 _atom_site_occupancy
  Al  Al0  1  0.33332685  0.16665438  0.12489633  1
  Al  Al1  1  0.16675952  0.33337927  0.37483404  1
  Al  Al2  1  0.33337927  0.16675952  0.62516596  1
  Al  Al3  1  0.16665438  0.33332685  0.87510367  1
  Al  Al4  1  0.33332731  0.66667270  0.12489610  1
  Al  Al5  1  0.16666631  0.83333370  0.37543623  1
  Al  Al6  1  0.33337994  0.66662007  0.62516578  1
  Al  Al7  1  0.16666644  0.83333357  0.87509062  1
  Al  Al8  1  0.83333357  0.16666644  0.12490938  1
  Al  Al9  1  0.66662007  0.33337994  0.37483422  1
  Al  Al10  1  0.83333370  0.16666631  0.62456377  1
  Al  Al11  1  0.66667270  0.33332731  0.87510390  1
  Al  Al12  1  0.83334563  0.66667316  0.12489633  1
  Al  Al13  1  0.66662074  0.83324049  0.37483404  1
  Al  Al14  1  0.83324049  0.66662074  0.62516596  1
  Al  Al15  1  0.66667316  0.83334563  0.87510367  1
  V  V16  1  0.33367914  0.16735811  0.45697555  1
  V  V17  1  0.16667549  0.33333713  0.04269561  1
  V  V18  1  0.16681822  0.33340876  0.20710747  1
  V  V19  1  0.33321144  0.16642347  0.29266224  1
  V  V20  1  0.33333713  0.16667549  0.95730439  1
  V  V21  1  0.16735811  0.33367914  0.54302445  1
  V  V22  1  0.16642347  0.33321144  0.70733776  1
  V  V23  1  0.33340876  0.16681822  0.79289253  1
  V  V24  1  0.33367919  0.66632082  0.45697589  1
  V  V25  1  0.16666622  0.83333379  0.04270270  1
  V  V26  1  0.16666645  0.83333356  0.20715266  1
  V  V27  1  0.33321181  0.66678820  0.29266228  1
  V  V28  1  0.33333799  0.66666202  0.95730445  1
  V  V29  1  0.16666698  0.83333303  0.54205280  1
  V  V30  1  0.16666650  0.83333351  0.70758458  1
  V  V31  1  0.33340923  0.66659078  0.79289255  1
  V  V32  1  0.83333303  0.16666698  0.45794720  1
  V  V33  1  0.66666202  0.33333799  0.04269555  1
  V  V34  1  0.66659078  0.33340923  0.20710745  1
  V  V35  1  0.83333351  0.16666650  0.29241542  1
  V  V36  1  0.83333379  0.16666622  0.95729730  1
  V  V37  1  0.66632082  0.33367919  0.54302411  1
  V  V38  1  0.66678820  0.33321181  0.70733772  1
  V  V39  1  0.83333356  0.16666645  0.79284734  1
  V  V40  1  0.83264190  0.66632087  0.45697555  1
  V  V41  1  0.66666288  0.83332452  0.04269561  1
  V  V42  1  0.66659125  0.83318179  0.20710747  1
  V  V43  1  0.83357654  0.66678857  0.29266224  1
  V  V44  1  0.83332452  0.66666288  0.95730439  1
  V  V45  1  0.66632087  0.83264190  0.54302445  1
  V  V46  1  0.66678857  0.83357654  0.70733776  1
  V  V47  1  0.83318179  0.66659125  0.79289253  1
  C  C48  1  -0.00000000  -0.00000000  0.00000000  1
  C  C49  1  0.99999127  0.00000873  0.24983650  1
  C  C50  1  -0.00000000  -0.00000000  0.50000000  1
  C  C51  1  0.00000873  0.99999127  0.75016350  1
  C  C52  1  -0.00000000  0.50000000  0.00000000  1
  C  C53  1  0.99999076  0.49998225  0.24983643  1
  C  C54  1  -0.00000000  0.50000000  0.50000000  1
  C  C55  1  0.00000924  0.50001775  0.75016357  1
  C  C56  1  0.50000000  -0.00000000  0.00000000  1
  C  C57  1  0.50001775  0.00000924  0.24983643  1
  C  C58  1  0.50000000  -0.00000000  0.50000000  1
  C  C59  1  0.49998225  0.99999076  0.75016357  1
  C  C60  1  0.50000000  0.50000000  0.00000000  1
  C  C61  1  0.50000026  0.49999974  0.24994845  1
  C  C62  1  0.49999974  0.50000026  0.75005155  1
