# generated using pymatgen
data_Al2V4C
_symmetry_space_group_name_H-M   'P 1'
_cell_length_a   2.84154004
_cell_length_b   2.84154003
_cell_length_c   13.08245538
_cell_angle_alpha   90.00000000
_cell_angle_beta   90.00000000
_cell_angle_gamma   119.99999993
_symmetry_Int_Tables_number   1
_chemical_formula_structural   Al2V4C
_chemical_formula_sum   'Al2 V4 C1'
_cell_volume   91.48027303
_cell_formula_units_Z   1
loop_
 _symmetry_equiv_pos_site_id
 _symmetry_equiv_pos_as_xyz
  1  'x, y, z'
loop_
 _atom_site_type_symbol
 _atom_site_label
 _atom_site_symmetry_multiplicity
 _atom_site_fract_x
 _atom_site_fract_y
 _atom_site_fract_z
 _atom_site_occupancy
  Al  Al0  1  0.66666669  0.33333334  0.24516773  1
  Al  Al1  1  0.33333334  0.66666669  0.75486564  1
  V  V2  1  0.66666669  0.33333334  0.92360139  1
  V  V3  1  0.33333334  0.66666669  0.07638376  1
  V  V4  1  0.33333334  0.66666669  0.41234738  1
  V  V5  1  0.66666669  0.33333334  0.58763495  1
  C  C6  1  -0.00000000  -0.00000000  0.49999915  1
