# generated using pymatgen
data_Al18V36C17
_symmetry_space_group_name_H-M   'P 1'
_cell_length_a   8.70755653
_cell_length_b   8.70755653
_cell_length_c   13.14658600
_cell_angle_alpha   90.00000000
_cell_angle_beta   90.00000000
_cell_angle_gamma   119.99999997
_symmetry_Int_Tables_number   1
_chemical_formula_structural   Al18V36C17
_chemical_formula_sum   'Al18 V36 C17'
_cell_volume   863.24927776
_cell_formula_units_Z   1
loop_
 _symmetry_equiv_pos_site_id
 _symmetry_equiv_pos_as_xyz
  1  'x, y, z'
loop_
 _atom_site_type_symbol
 _atom_site_label
 _atom_site_symmetry_multiplicity
 _atom_site_fract_x
 _atom_site_fract_y
 _atom_site_fract_z
 _atom_site_occupancy
  Al  Al0  1  0.22409130  0.11204564  0.24934087  1
  Al  Al1  1  0.11100331  0.22200663  0.75005024  1
  Al  Al2  1  0.22233003  0.44466005  0.24994976  1
  Al  Al3  1  0.10924204  0.55462103  0.75065913  1
  Al  Al4  1  0.22233003  0.77766998  0.24994976  1
  Al  Al5  1  0.11100331  0.88899670  0.75005024  1
  Al  Al6  1  0.55600092  0.11200183  0.25063721  1
  Al  Al7  1  0.44533517  0.22266759  0.74936279  1
  Al  Al8  1  0.55600092  0.44399909  0.25063721  1
  Al  Al9  1  0.44537898  0.55462103  0.75065913  1
  Al  Al10  1  0.55533996  0.77766998  0.24994976  1
  Al  Al11  1  0.44537898  0.89075797  0.75065913  1
  Al  Al12  1  0.88795437  0.11204564  0.24934087  1
  Al  Al13  1  0.77733242  0.22266759  0.74936279  1
  Al  Al14  1  0.88799818  0.44399909  0.25063721  1
  Al  Al15  1  0.77733242  0.55466484  0.74936279  1
  Al  Al16  1  0.88795437  0.77590871  0.24934087  1
  Al  Al17  1  0.77799338  0.88899670  0.75005024  1
  V  V18  1  0.22451839  0.11225919  0.91542403  1
  V  V19  1  0.11130314  0.22260629  0.08482956  1
  V  V20  1  0.11120504  0.22241010  0.41462923  1
  V  V21  1  0.22174896  0.11087448  0.58486742  1
  V  V22  1  0.22203020  0.44406039  0.91517045  1
  V  V23  1  0.10881495  0.55440748  0.08457598  1
  V  V24  1  0.11158438  0.55579219  0.41513258  1
  V  V25  1  0.22212830  0.44425658  0.58537077  1
  V  V26  1  0.22203020  0.77796981  0.91517045  1
  V  V27  1  0.11130314  0.88869687  0.08482956  1
  V  V28  1  0.11120504  0.88879497  0.41462923  1
  V  V29  1  0.22212830  0.77787171  0.58537077  1
  V  V30  1  0.55650581  0.11301160  0.91357971  1
  V  V31  1  0.44634494  0.22317248  0.08642030  1
  V  V32  1  0.44413529  0.22206766  0.41481668  1
  V  V33  1  0.55540099  0.11080195  0.58518332  1
  V  V34  1  0.55650581  0.44349420  0.91357971  1
  V  V35  1  0.44559253  0.55440748  0.08457598  1
  V  V36  1  0.44420782  0.55579219  0.41513258  1
  V  V37  1  0.55540099  0.44459902  0.58518332  1
  V  V38  1  0.55593962  0.77796981  0.91517045  1
  V  V39  1  0.44559253  0.89118506  0.08457598  1
  V  V40  1  0.44420782  0.88841563  0.41513258  1
  V  V41  1  0.55574343  0.77787171  0.58537077  1
  V  V42  1  0.88774082  0.11225919  0.91542403  1
  V  V43  1  0.77682753  0.22317248  0.08642030  1
  V  V44  1  0.77793235  0.22206766  0.41481668  1
  V  V45  1  0.88912553  0.11087448  0.58486742  1
  V  V46  1  0.88698841  0.44349420  0.91357971  1
  V  V47  1  0.77682753  0.55365507  0.08642030  1
  V  V48  1  0.77793235  0.55586472  0.41481668  1
  V  V49  1  0.88919806  0.44459902  0.58518332  1
  V  V50  1  0.88774082  0.77548162  0.91542403  1
  V  V51  1  0.77739372  0.88869687  0.08482956  1
  V  V52  1  0.77758991  0.88879497  0.41462923  1
  V  V53  1  0.88912553  0.77825105  0.58486742  1
  C  C54  1  0.00000000  -0.00000000  0.99949281  1
  C  C55  1  0.00000000  -0.00000000  0.49947539  1
  C  C56  1  0.99815780  0.33333333  -0.00000000  1
  C  C57  1  0.00009461  0.33333333  0.50000000  1
  C  C58  1  0.99815780  0.66482447  -0.00000000  1
  C  C59  1  0.00009461  0.66676128  0.50000000  1
  C  C60  1  0.33517553  0.00184220  -0.00000000  1
  C  C61  1  0.33323872  0.99990539  0.50000000  1
  C  C62  1  0.33517553  0.33333333  -0.00000000  1
  C  C63  1  0.33323872  0.33333333  0.50000000  1
  C  C64  1  0.33333333  0.66666667  0.00050719  1
  C  C65  1  0.33333333  0.66666667  0.50052461  1
  C  C66  1  0.66666667  0.00184220  -0.00000000  1
  C  C67  1  0.66666667  0.99990539  0.50000000  1
  C  C68  1  0.66666667  0.33333333  0.50000000  1
  C  C69  1  0.66666667  0.66482447  -0.00000000  1
  C  C70  1  0.66666667  0.66676128  0.50000000  1
