# generated using pymatgen
data_Al8V16C7
_symmetry_space_group_name_H-M   'P 1'
_cell_length_a   5.77695287
_cell_length_b   5.77695288
_cell_length_c   13.17716394
_cell_angle_alpha   90.00000000
_cell_angle_beta   90.00000000
_cell_angle_gamma   120.00000000
_symmetry_Int_Tables_number   1
_chemical_formula_structural   Al8V16C7
_chemical_formula_sum   'Al8 V16 C7'
_cell_volume   380.84672948
_cell_formula_units_Z   1
loop_
 _symmetry_equiv_pos_site_id
 _symmetry_equiv_pos_as_xyz
  1  'x, y, z'
loop_
 _atom_site_type_symbol
 _atom_site_label
 _atom_site_symmetry_multiplicity
 _atom_site_fract_x
 _atom_site_fract_y
 _atom_site_fract_z
 _atom_site_occupancy
  Al  Al0  1  0.33331296  0.16665648  0.24985795  1
  Al  Al1  1  0.16665648  0.33331296  0.75014205  1
  Al  Al2  1  0.33333334  0.66666667  0.25131748  1
  Al  Al3  1  0.16665648  0.83334353  0.75014205  1
  Al  Al4  1  0.83334353  0.16665648  0.24985795  1
  Al  Al5  1  0.66666667  0.33333334  0.74868252  1
  Al  Al6  1  0.83334353  0.66668705  0.24985795  1
  Al  Al7  1  0.66668705  0.83334353  0.75014205  1
  V  V8  1  0.33345393  0.16672696  0.91422838  1
  V  V9  1  0.16672696  0.33345393  0.08577163  1
  V  V10  1  0.16616774  0.33233546  0.41399777  1
  V  V11  1  0.33233546  0.16616774  0.58600223  1
  V  V12  1  0.33333334  0.66666667  0.91483271  1
  V  V13  1  0.16672696  0.83327305  0.08577163  1
  V  V14  1  0.16616774  0.83383227  0.41399777  1
  V  V15  1  0.33333334  0.66666667  0.58417864  1
  V  V16  1  0.83327305  0.16672696  0.91422838  1
  V  V17  1  0.66666667  0.33333334  0.08516730  1
  V  V18  1  0.66666667  0.33333334  0.41582136  1
  V  V19  1  0.83383227  0.16616774  0.58600223  1
  V  V20  1  0.83327305  0.66654608  0.91422838  1
  V  V21  1  0.66654608  0.83327305  0.08577163  1
  V  V22  1  0.66766455  0.83383227  0.41399777  1
  V  V23  1  0.83383227  0.66766455  0.58600223  1
  C  C24  1  0.00000000  -0.00000000  0.00000000  1
  C  C25  1  0.00000000  0.50000000  0.00000000  1
  C  C26  1  0.00000000  0.50000000  0.50000000  1
  C  C27  1  0.50000000  -0.00000000  0.00000000  1
  C  C28  1  0.50000000  -0.00000000  0.50000000  1
  C  C29  1  0.50000000  0.50000000  0.00000000  1
  C  C30  1  0.50000000  0.50000000  0.50000000  1
