# generated using pymatgen
data_Al18V36C17
_symmetry_space_group_name_H-M   'P 1'
_cell_length_a   8.70766711
_cell_length_b   8.70766710
_cell_length_c   13.14680467
_cell_angle_alpha   90.00000000
_cell_angle_beta   90.00000000
_cell_angle_gamma   119.99999999
_symmetry_Int_Tables_number   1
_chemical_formula_structural   Al18V36C17
_chemical_formula_sum   'Al18 V36 C17'
_cell_volume   863.28556164
_cell_formula_units_Z   1
loop_
 _symmetry_equiv_pos_site_id
 _symmetry_equiv_pos_as_xyz
  1  'x, y, z'
loop_
 _atom_site_type_symbol
 _atom_site_label
 _atom_site_symmetry_multiplicity
 _atom_site_fract_x
 _atom_site_fract_y
 _atom_site_fract_z
 _atom_site_occupancy
  Al  Al0  1  0.22232618  0.11100716  0.24994060  1
  Al  Al1  1  0.11100716  0.22232618  0.75005940  1
  Al  Al2  1  0.22408870  0.44537768  0.24933893  1
  Al  Al3  1  0.11100716  0.55534763  0.75005940  1
  Al  Al4  1  0.22232618  0.77798571  0.24994060  1
  Al  Al5  1  0.10924464  0.88795567  0.75066107  1
  Al  Al6  1  0.55534763  0.11100716  0.24994060  1
  Al  Al7  1  0.44537768  0.22408870  0.75066107  1
  Al  Al8  1  0.55599528  0.44532389  0.25062811  1
  Al  Al9  1  0.44532389  0.55599528  0.74937189  1
  Al  Al10  1  0.55599528  0.77733806  0.25062811  1
  Al  Al11  1  0.44537768  0.88795567  0.75066107  1
  Al  Al12  1  0.88795567  0.10924464  0.24933893  1
  Al  Al13  1  0.77798571  0.22232618  0.75005940  1
  Al  Al14  1  0.88795567  0.44537768  0.24933893  1
  Al  Al15  1  0.77733806  0.55599528  0.74937189  1
  Al  Al16  1  0.88800946  0.77733806  0.25062811  1
  Al  Al17  1  0.77733806  0.88800946  0.74937189  1
  V  V18  1  0.22202997  0.11130337  0.91517154  1
  V  V19  1  0.11130337  0.22202997  0.08482847  1
  V  V20  1  0.11120516  0.22212818  0.41462966  1
  V  V21  1  0.22212818  0.11120516  0.58537034  1
  V  V22  1  0.22451591  0.44559128  0.91543012  1
  V  V23  1  0.11130337  0.55594006  0.08482847  1
  V  V24  1  0.11120516  0.55574363  0.41462966  1
  V  V25  1  0.22174802  0.44420735  0.58486766  1
  V  V26  1  0.22202997  0.77739328  0.91517154  1
  V  V27  1  0.10881743  0.88774207  0.08456989  1
  V  V28  1  0.11158532  0.88912600  0.41513234  1
  V  V29  1  0.22212818  0.77758971  0.58537034  1
  V  V30  1  0.55594006  0.11130337  0.91517154  1
  V  V31  1  0.44559128  0.22451591  0.08456989  1
  V  V32  1  0.44420735  0.22174802  0.41513234  1
  V  V33  1  0.55574363  0.11120516  0.58537034  1
  V  V34  1  0.55649861  0.44633056  0.91357833  1
  V  V35  1  0.44633056  0.55649861  0.08642168  1
  V  V36  1  0.44413527  0.55540097  0.41481549  1
  V  V37  1  0.55540097  0.44413527  0.58518451  1
  V  V38  1  0.55649861  0.77683473  0.91357833  1
  V  V39  1  0.44559128  0.88774207  0.08456989  1
  V  V40  1  0.44420735  0.88912600  0.41513234  1
  V  V41  1  0.55540097  0.77793237  0.58518451  1
  V  V42  1  0.88774207  0.10881743  0.91543012  1
  V  V43  1  0.77739328  0.22202997  0.08482847  1
  V  V44  1  0.77758971  0.22212818  0.41462966  1
  V  V45  1  0.88912600  0.11158532  0.58486766  1
  V  V46  1  0.88774207  0.44559128  0.91543012  1
  V  V47  1  0.77683473  0.55649861  0.08642168  1
  V  V48  1  0.77793237  0.55540097  0.41481549  1
  V  V49  1  0.88912600  0.44420735  0.58486766  1
  V  V50  1  0.88700279  0.77683473  0.91357833  1
  V  V51  1  0.77683473  0.88700279  0.08642168  1
  V  V52  1  0.77793237  0.88919808  0.41481549  1
  V  V53  1  0.88919808  0.77793237  0.58518451  1
  C  C54  1  0.99815686  0.99815686  0.00000000  1
  C  C55  1  0.00009364  0.00009364  0.50000000  1
  C  C56  1  -0.00000000  0.33333333  0.99949859  1
  C  C57  1  -0.00000000  0.33333333  0.49947370  1
  C  C58  1  0.99815686  0.66666667  0.00000000  1
  C  C59  1  0.00009364  0.66666667  0.50000000  1
  C  C60  1  0.33333333  -0.00000000  0.00050141  1
  C  C61  1  0.33333333  -0.00000000  0.50052630  1
  C  C62  1  0.33517647  0.33517647  0.00000000  1
  C  C63  1  0.33323969  0.33323969  0.50000000  1
  C  C64  1  0.33517647  0.66666667  0.00000000  1
  C  C65  1  0.33323969  0.66666667  0.50000000  1
  C  C66  1  0.66666667  0.99815686  0.00000000  1
  C  C67  1  0.66666667  0.00009364  0.50000000  1
  C  C68  1  0.66666667  0.33517647  0.00000000  1
  C  C69  1  0.66666667  0.33323969  0.50000000  1
  C  C70  1  0.66666667  0.66666667  0.50000000  1
