# generated using pymatgen
data_Ti4Fe4C5
_symmetry_space_group_name_H-M   'P 1'
_cell_length_a   5.85722813
_cell_length_b   5.81780351
_cell_length_c   14.08851042
_cell_angle_alpha   89.66821709
_cell_angle_beta   92.15994314
_cell_angle_gamma   119.84313988
_symmetry_Int_Tables_number   1
_chemical_formula_structural   Ti4Fe4C5
_chemical_formula_sum   'Ti12 Fe12 C15'
_cell_volume   416.07721275
_cell_formula_units_Z   3
loop_
 _symmetry_equiv_pos_site_id
 _symmetry_equiv_pos_as_xyz
  1  'x, y, z'
loop_
 _atom_site_type_symbol
 _atom_site_label
 _atom_site_symmetry_multiplicity
 _atom_site_fract_x
 _atom_site_fract_y
 _atom_site_fract_z
 _atom_site_occupancy
  Fe  Fe0  1  0.16471919  0.82973886  0.08918334  1
  Fe  Fe1  1  0.16514155  0.32263471  0.08873495  1
  Fe  Fe2  1  0.30787110  0.15132524  0.91635647  1
  Fe  Fe3  1  0.82310050  0.17904821  0.42185147  1
  Fe  Fe4  1  0.51063264  0.48853006  0.23930377  1
  Fe  Fe5  1  0.51289274  0.01073542  0.24004021  1
  Fe  Fe6  1  0.48221527  0.50446019  0.76054555  1
  Fe  Fe7  1  0.48431082  0.98052917  0.76028918  1
  Fe  Fe8  1  0.18485693  0.36505042  0.57483298  1
  Fe  Fe9  1  0.68367761  0.34938314  0.57290977  1
  Fe  Fe10  1  0.65821419  0.32509051  0.08984336  1
  Fe  Fe11  1  0.32580687  0.66223081  0.91233714  1
  Ti  Ti12  1  0.65982427  0.82373672  0.08004193  1
  Ti  Ti13  1  0.83087269  0.16569833  0.91961699  1
  Ti  Ti14  1  0.82999935  0.65681690  0.91873396  1
  Ti  Ti15  1  0.82331728  0.66753708  0.41821295  1
  Ti  Ti16  1  0.33365336  0.17650902  0.41490890  1
  Ti  Ti17  1  0.99864449  0.48966006  0.24522360  1
  Ti  Ti18  1  0.98466350  0.48945520  0.74755763  1
  Ti  Ti19  1  0.18631274  0.85255159  0.58456798  1
  Ti  Ti20  1  0.67463005  0.84688659  0.58813555  1
  Ti  Ti21  1  0.00423686  0.99750957  0.24483470  1
  Ti  Ti22  1  0.00043433  0.00407498  0.75476190  1
  Ti  Ti23  1  0.33803862  0.67690853  0.41444718  1
  C  C24  1  0.51014441  0.01487629  0.50058862  1
  C  C25  1  0.99838047  0.49791031  0.50266355  1
  C  C26  1  0.50318188  0.50554415  0.50468927  1
  C  C27  1  0.17544538  0.34039724  0.84082941  1
  C  C28  1  0.65126637  0.82333885  0.83651619  1
  C  C29  1  0.17364410  0.83292329  0.83929826  1
  C  C30  1  0.83380787  0.65669828  0.15990194  1
  C  C31  1  0.34532696  0.16517310  0.15870492  1
  C  C32  1  0.83175277  0.16438215  0.15900505  1
  C  C33  1  0.00377198  0.02098779  0.50033072  1
  C  C34  1  0.63970273  0.31616238  0.82925962  1
  C  C35  1  0.33933778  0.66235202  0.16805643  1
  C  C36  1  0.02660893  0.00762958  0.00390405  1
  C  C37  1  0.66348070  0.32148481  0.32887981  1
  C  C38  1  0.33413402  0.65598512  0.67010068  1
