# generated using pymatgen
data_Al31NiN32
_symmetry_space_group_name_H-M   'P 1'
_cell_length_a   11.28475000
_cell_length_b   11.28474999
_cell_length_c   10.04016000
_cell_angle_alpha   90.00000000
_cell_angle_beta   90.00000000
_cell_angle_gamma   147.79000000
_symmetry_Int_Tables_number   1
_chemical_formula_structural   Al31NiN32
_chemical_formula_sum   'Al31 Ni1 N32'
_cell_volume   681.50845262
_cell_formula_units_Z   1
loop_
 _symmetry_equiv_pos_site_id
 _symmetry_equiv_pos_as_xyz
  1  'x, y, z'
loop_
 _atom_site_type_symbol
 _atom_site_label
 _atom_site_symmetry_multiplicity
 _atom_site_fract_x
 _atom_site_fract_y
 _atom_site_fract_z
 _atom_site_occupancy
  Ni  Ni0  1  0.79186644  0.70813363  0.50269024  1
  N  N1  1  0.04157215  0.45842773  0.31079220  1
  N  N2  1  0.41587142  0.58292114  0.31064231  1
  N  N3  1  0.91707881  0.08412849  0.31064231  1
  N  N4  1  0.29143866  0.20856108  0.30988738  1
  N  N5  1  0.66657514  0.33262765  0.31061092  1
  N  N6  1  0.79179462  0.70820536  0.30654735  1
  N  N7  1  0.16737198  0.83342452  0.31061090  1
  N  N8  1  0.54191323  0.95808629  0.31073642  1
  N  N9  1  0.04168800  0.45831188  0.81076617  1
  N  N10  1  0.41658587  0.58322424  0.81129984  1
  N  N11  1  0.91677552  0.08341376  0.81129981  1
  N  N12  1  0.29138379  0.20861583  0.81205062  1
  N  N13  1  0.66664713  0.33324435  0.81102356  1
  N  N14  1  0.79176401  0.70823569  0.81153110  1
  N  N15  1  0.16675503  0.83335225  0.81102362  1
  N  N16  1  0.54172551  0.95827454  0.81078912  1
  N  N17  1  0.33245427  0.66605327  0.56083263  1
  N  N18  1  0.70540179  0.79459798  0.56229542  1
  N  N19  1  0.20791420  0.29208565  0.56112586  1
  N  N20  1  0.57513139  0.40606294  0.56182189  1
  N  N21  1  0.95824832  0.54175136  0.56085397  1
  N  N22  1  0.09393705  0.92486841  0.56182187  1
  N  N23  1  0.45915310  0.04084654  0.56060009  1
  N  N24  1  0.83394641  0.16754540  0.56083245  1
  N  N25  1  0.33320458  0.66668258  0.06082598  1
  N  N26  1  0.70825656  0.79174306  0.06138279  1
  N  N27  1  0.20817519  0.29182455  0.06085656  1
  N  N28  1  0.58328692  0.41640336  0.06127326  1
  N  N29  1  0.95836832  0.54163117  0.06075894  1
  N  N30  1  0.08359632  0.91671272  0.06127319  1
  N  N31  1  0.45844854  0.04155070  0.06084240  1
  N  N32  1  0.83331679  0.16679485  0.06082595  1
  Al  Al33  1  0.04151991  0.45847976  0.50153890  1
  Al  Al34  1  0.41534483  0.58232738  0.50098195  1
  Al  Al35  1  0.91767245  0.08465500  0.50098206  1
  Al  Al36  1  0.29038507  0.20961475  0.49941412  1
  Al  Al37  1  0.66679105  0.33240584  0.50086506  1
  Al  Al38  1  0.16759389  0.83320855  0.50086517  1
  Al  Al39  1  0.54220193  0.95779777  0.50149122  1
  Al  Al40  1  0.04167735  0.45832216  0.00132697  1
  Al  Al41  1  0.41657908  0.58336410  0.00179794  1
  Al  Al42  1  0.91663557  0.08342059  0.00179797  1
  Al  Al43  1  0.29153887  0.20846149  0.00239251  1
  Al  Al44  1  0.66667201  0.33315900  0.00166694  1
  Al  Al45  1  0.79169392  0.70830500  0.00263749  1
  Al  Al46  1  0.16684054  0.83332817  0.00166698  1
  Al  Al47  1  0.54171447  0.95828477  0.00131212  1
  Al  Al48  1  0.33347917  0.66666430  0.75146516  1
  Al  Al49  1  0.70850168  0.79149784  0.75211520  1
  Al  Al50  1  0.20825067  0.29174918  0.75186523  1
  Al  Al51  1  0.58274941  0.41636112  0.75230549  1
  Al  Al52  1  0.95830712  0.54169206  0.75155854  1
  Al  Al53  1  0.08363850  0.91725030  0.75230546  1
  Al  Al54  1  0.45836341  0.04163618  0.75116996  1
  Al  Al55  1  0.83333518  0.16652040  0.75146511  1
  Al  Al56  1  0.33299342  0.66652646  0.25139452  1
  Al  Al57  1  0.70778330  0.79221642  0.25267033  1
  Al  Al58  1  0.20816561  0.29183455  0.25091825  1
  Al  Al59  1  0.58236607  0.41494244  0.25235564  1
  Al  Al60  1  0.95832985  0.54166952  0.25130482  1
  Al  Al61  1  0.08505733  0.91763383  0.25235578  1
  Al  Al62  1  0.45867809  0.04132179  0.25141141  1
  Al  Al63  1  0.83347319  0.16700634  0.25139455  1
