# generated using pymatgen
data_Ti4Fe4C5
_symmetry_space_group_name_H-M   'P 1'
_cell_length_a   6.00787103
_cell_length_b   5.51468571
_cell_length_c   15.23385130
_cell_angle_alpha   99.24442835
_cell_angle_beta   88.20974344
_cell_angle_gamma   122.06894591
_symmetry_Int_Tables_number   1
_chemical_formula_structural   Ti4Fe4C5
_chemical_formula_sum   'Ti12 Fe12 C15'
_cell_volume   421.26773751
_cell_formula_units_Z   3
loop_
 _symmetry_equiv_pos_site_id
 _symmetry_equiv_pos_as_xyz
  1  'x, y, z'
loop_
 _atom_site_type_symbol
 _atom_site_label
 _atom_site_symmetry_multiplicity
 _atom_site_fract_x
 _atom_site_fract_y
 _atom_site_fract_z
 _atom_site_occupancy
  Ti  Ti0  1  0.20817510  0.72178026  0.01135540  1
  Ti  Ti1  1  0.84954692  0.13863340  0.89684350  1
  Ti  Ti2  1  0.85241847  0.63717343  0.88144894  1
  Ti  Ti3  1  0.36527807  0.16040351  0.89363177  1
  Ti  Ti4  1  0.21985524  0.82012071  0.19396624  1
  Ti  Ti5  1  0.15912074  0.27978364  0.28880886  1
  Ti  Ti6  1  0.18321610  0.25691887  0.10010284  1
  Ti  Ti7  1  0.74197357  0.42710410  0.29239416  1
  Ti  Ti8  1  0.49513369  0.38740521  0.72205432  1
  Ti  Ti9  1  0.97960381  0.36663557  0.71502331  1
  Ti  Ti10  1  0.25528135  0.88544924  0.59319529  1
  Ti  Ti11  1  0.70129619  0.28027631  0.09950405  1
  Fe  Fe12  1  0.68946266  0.74059820  0.02327688  1
  Fe  Fe13  1  0.80821987  0.17502972  0.40678855  1
  Fe  Fe14  1  0.55463249  0.67869210  0.40800689  1
  Fe  Fe15  1  0.41558906  0.21018836  0.44902816  1
  Fe  Fe16  1  0.68047101  0.73636805  0.18864367  1
  Fe  Fe17  1  0.47988868  0.87749306  0.74153904  1
  Fe  Fe18  1  0.07720041  0.22852993  0.54129228  1
  Fe  Fe19  1  0.67562032  0.84651646  0.58397548  1
  Fe  Fe20  1  0.00277837  0.89191985  0.74254277  1
  Fe  Fe21  1  0.76025760  0.40235721  0.57210570  1
  Fe  Fe22  1  0.34792380  0.62839117  0.86875991  1
  Fe  Fe23  1  0.15812977  0.68382574  0.43739620  1
  C  C24  1  0.54958351  0.97796555  0.49240688  1
  C  C25  1  0.91516284  0.76383295  0.51343467  1
  C  C26  1  0.43414910  0.38620384  0.58196594  1
  C  C27  1  0.16753087  0.25796354  0.80693050  1
  C  C28  1  0.67699055  0.77079491  0.80317003  1
  C  C29  1  0.17708824  0.76398916  0.80428727  1
  C  C30  1  0.72859513  0.86594004  0.31262898  1
  C  C31  1  0.44405672  0.29381813  0.19554985  1
  C  C32  1  0.97624713  0.36175445  0.19852448  1
  C  C33  1  0.19084717  0.35402597  0.42957192  1
  C  C34  1  0.66992546  0.25181492  0.80527112  1
  C  C35  1  0.45926690  0.75695736  0.10576824  1
  C  C36  1  0.93959227  0.76424806  0.09997689  1
  C  C37  1  0.77792311  0.53854653  0.43542414  1
  C  C38  1  0.33942773  0.56391382  0.63180299  1
