# generated using pymatgen
data_Ti12Fe12H11C15
_symmetry_space_group_name_H-M   'P 1'
_cell_length_a   6.04853650
_cell_length_b   5.71557281
_cell_length_c   15.53501881
_cell_angle_alpha   98.73704688
_cell_angle_beta   87.16446373
_cell_angle_gamma   121.81172138
_symmetry_Int_Tables_number   1
_chemical_formula_structural   Ti12Fe12H11C15
_chemical_formula_sum   'Ti12 Fe12 H11 C15'
_cell_volume   450.78902272
_cell_formula_units_Z   1
loop_
 _symmetry_equiv_pos_site_id
 _symmetry_equiv_pos_as_xyz
  1  'x, y, z'
loop_
 _atom_site_type_symbol
 _atom_site_label
 _atom_site_symmetry_multiplicity
 _atom_site_fract_x
 _atom_site_fract_y
 _atom_site_fract_z
 _atom_site_occupancy
  Ti  Ti0  1  0.19204159  0.72139680  0.00765227  1
  Ti  Ti1  1  0.85176817  0.13463905  0.88600224  1
  Ti  Ti2  1  0.83462454  0.61702141  0.87671429  1
  Ti  Ti3  1  0.35577335  0.13501866  0.88573909  1
  Ti  Ti4  1  0.20938907  0.82606261  0.18901793  1
  Ti  Ti5  1  0.24274535  0.41650510  0.28479810  1
  Ti  Ti6  1  0.17819235  0.25530618  0.10250106  1
  Ti  Ti7  1  0.75171922  0.44018586  0.28971413  1
  Ti  Ti8  1  0.50036190  0.38685633  0.72078958  1
  Ti  Ti9  1  0.00076927  0.38080272  0.71978346  1
  Ti  Ti10  1  0.23043619  0.88636726  0.58834884  1
  Ti  Ti11  1  0.70495548  0.28458351  0.10024502  1
  Fe  Fe12  1  0.71518541  0.80146016  0.02537255  1
  Fe  Fe13  1  0.77208202  0.15404584  0.40319559  1
  Fe  Fe14  1  0.54634766  0.65512709  0.41908181  1
  Fe  Fe15  1  0.38557472  0.19477139  0.45363594  1
  Fe  Fe16  1  0.63975187  0.69397087  0.17527185  1
  Fe  Fe17  1  0.48181916  0.87518244  0.74139056  1
  Fe  Fe18  1  0.06684047  0.25109935  0.54011047  1
  Fe  Fe19  1  0.73155885  0.82302185  0.60755492  1
  Fe  Fe20  1  0.01393580  0.89504137  0.74547834  1
  Fe  Fe21  1  0.75316446  0.40201400  0.55997868  1
  Fe  Fe22  1  0.35353480  0.62046971  0.86562788  1
  Fe  Fe23  1  0.11722489  0.63812435  0.43340120  1
  C  C24  1  0.46914314  0.92838717  0.47147790  1
  C  C25  1  0.88777547  0.74772961  0.50172651  1
  C  C26  1  0.41255984  0.36182395  0.58417739  1
  C  C27  1  0.17399467  0.25531020  0.80487054  1
  C  C28  1  0.67739850  0.76590288  0.79876138  1
  C  C29  1  0.17635001  0.75525380  0.80602829  1
  C  C30  1  0.64160490  0.80239116  0.31229259  1
  C  C31  1  0.43914221  0.28203081  0.19624232  1
  C  C32  1  0.97404812  0.36582177  0.19530034  1
  C  C33  1  0.15667260  0.31213997  0.41875549  1
  C  C34  1  0.66911819  0.24504621  0.79974523  1
  C  C35  1  0.44146209  0.75664267  0.09956913  1
  C  C36  1  0.93403258  0.76864378  0.09925272  1
  C  C37  1  0.74538545  0.49343702  0.43485613  1
  C  C38  1  0.34910142  0.56250248  0.63190907  1
  H  H39  1  0.84568909  0.84793761  0.28057276  1
  H  H40  1  0.37082902  0.12139839  0.01294812  1
  H  H41  1  0.88790358  0.13454858  0.01596956  1
  H  H42  1  0.83683636  0.41359579  0.96744247  1
  H  H43  1  0.63364863  0.01211664  0.30403489  1
  H  H44  1  0.14379521  0.72001241  0.33078929  1
  H  H45  1  0.89224475  0.61748994  0.66058605  1
  H  H46  1  0.14309829  0.12388496  0.36730974  1
  H  H47  1  0.54064892  0.92507525  0.54048374  1
  H  H48  1  0.50183727  0.55207665  0.94266143  1
  H  H49  1  0.82033793  0.17652425  0.60698453  1
