# generated using pymatgen
data_V3C2
_symmetry_space_group_name_H-M   'P 1'
_cell_length_a   5.01667958
_cell_length_b   5.04723837
_cell_length_c   5.04723837
_cell_angle_alpha   60.14627259
_cell_angle_beta   80.10655338
_cell_angle_gamma   99.89344663
_symmetry_Int_Tables_number   1
_chemical_formula_structural   V3C2
_chemical_formula_sum   'V6 C4'
_cell_volume   104.12011634
_cell_formula_units_Z   2
loop_
 _symmetry_equiv_pos_site_id
 _symmetry_equiv_pos_as_xyz
  1  'x, y, z'
loop_
 _atom_site_type_symbol
 _atom_site_label
 _atom_site_symmetry_multiplicity
 _atom_site_fract_x
 _atom_site_fract_y
 _atom_site_fract_z
 _atom_site_occupancy
  C  C0  1  0.75000000  0.25076026  0.75076026  1
  C  C1  1  0.25000000  0.41666667  0.91666667  1
  C  C2  1  0.75000000  0.58257307  0.08257307  1
  C  C3  1  0.75000000  0.91666667  0.41666667  1
  V  V4  1  0.98667819  0.00764582  0.00437191  1
  V  V5  1  0.50047013  0.18019377  0.15313957  1
  V  V6  1  0.98667819  0.32896142  0.32568751  1
  V  V7  1  0.51332181  0.50437191  0.50764582  1
  V  V8  1  0.99952987  0.65313957  0.68019377  1
  V  V9  1  0.51332181  0.82568751  0.82896142  1
