# generated using pymatgen
data_V6C5
_symmetry_space_group_name_H-M   'P 1'
_cell_length_a   5.08482953
_cell_length_b   5.09071310
_cell_length_c   5.09071310
_cell_angle_alpha   60.20444134
_cell_angle_beta   80.29166222
_cell_angle_gamma   99.70833777
_symmetry_Int_Tables_number   1
_chemical_formula_structural   V6C5
_chemical_formula_sum   'V6 C5'
_cell_volume   107.69738485
_cell_formula_units_Z   1
loop_
 _symmetry_equiv_pos_site_id
 _symmetry_equiv_pos_as_xyz
  1  'x, y, z'
loop_
 _atom_site_type_symbol
 _atom_site_label
 _atom_site_symmetry_multiplicity
 _atom_site_fract_x
 _atom_site_fract_y
 _atom_site_fract_z
 _atom_site_occupancy
  C  C0  1  0.75000000  0.24702354  0.74702354  1
  C  C1  1  0.25000000  0.41708023  0.91708023  1
  C  C2  1  0.75000000  0.58333333  0.08333333  1
  C  C3  1  0.25000000  0.74958644  0.24958644  1
  C  C4  1  0.75000000  0.91964313  0.41964313  1
  V  V5  1  0.99446356  0.99865184  0.02848806  1
  V  V6  1  0.50553644  0.16801483  0.13817861  1
  V  V7  1  0.98128357  0.35195459  0.31471207  1
  V  V8  1  0.50553644  0.52848806  0.49865184  1
  V  V9  1  0.99446356  0.63817861  0.66801483  1
  V  V10  1  0.51871643  0.81471207  0.85195459  1
