# generated using pymatgen
data_Na
_symmetry_space_group_name_H-M   'P 1'
_cell_length_a   7.50784655
_cell_length_b   7.50784655
_cell_length_c   12.11040083
_cell_angle_alpha   90.00000000
_cell_angle_beta   90.00000000
_cell_angle_gamma   119.99999997
_symmetry_Int_Tables_number   1
_chemical_formula_structural   Na
_chemical_formula_sum   Na16
_cell_volume   591.18026068
_cell_formula_units_Z   16
loop_
 _symmetry_equiv_pos_site_id
 _symmetry_equiv_pos_as_xyz
  1  'x, y, z'
loop_
 _atom_site_type_symbol
 _atom_site_label
 _atom_site_symmetry_multiplicity
 _atom_site_fract_x
 _atom_site_fract_y
 _atom_site_fract_z
 _atom_site_occupancy
  Na  Na0  1  0.16666667  0.33333333  0.12500000  1
  Na  Na1  1  0.33333333  0.16666667  0.37500000  1
  Na  Na2  1  0.16666667  0.33333333  0.62500000  1
  Na  Na3  1  0.33333333  0.16666667  0.87500000  1
  Na  Na4  1  0.16666667  0.83333333  0.12500000  1
  Na  Na5  1  0.33333333  0.66666667  0.37500000  1
  Na  Na6  1  0.16666667  0.83333333  0.62500000  1
  Na  Na7  1  0.33333333  0.66666667  0.87500000  1
  Na  Na8  1  0.66666667  0.33333333  0.12500000  1
  Na  Na9  1  0.83333333  0.16666667  0.37500000  1
  Na  Na10  1  0.66666667  0.33333333  0.62500000  1
  Na  Na11  1  0.83333333  0.16666667  0.87500000  1
  Na  Na12  1  0.66666667  0.83333333  0.12500000  1
  Na  Na13  1  0.83333333  0.66666667  0.37500000  1
  Na  Na14  1  0.66666667  0.83333333  0.62500000  1
  Na  Na15  1  0.83333333  0.66666667  0.87500000  1
