# generated using pymatgen
data_V2C
_symmetry_space_group_name_H-M   'P 1'
_cell_length_a   4.54901586
_cell_length_b   5.73595186
_cell_length_c   5.02851015
_cell_angle_alpha   90.00000000
_cell_angle_beta   90.00000000
_cell_angle_gamma   90.00000000
_symmetry_Int_Tables_number   1
_chemical_formula_structural   V2C
_chemical_formula_sum   'V8 C4'
_cell_volume   131.20859344
_cell_formula_units_Z   4
loop_
 _symmetry_equiv_pos_site_id
 _symmetry_equiv_pos_as_xyz
  1  'x, y, z'
loop_
 _atom_site_type_symbol
 _atom_site_label
 _atom_site_symmetry_multiplicity
 _atom_site_fract_x
 _atom_site_fract_y
 _atom_site_fract_z
 _atom_site_occupancy
  V  V0  1  0.24557863  0.11794872  0.07671162  1
  V  V1  1  0.74557863  0.38205128  0.92328838  1
  V  V2  1  0.75442137  0.11794872  0.42328838  1
  V  V3  1  0.25442137  0.38205128  0.57671162  1
  V  V4  1  0.75442137  0.88205128  0.92328838  1
  V  V5  1  0.25442137  0.61794872  0.07671162  1
  V  V6  1  0.24557863  0.88205128  0.57671162  1
  V  V7  1  0.74557863  0.61794872  0.42328838  1
  C  C8  1  -0.00000000  0.37279026  0.25000000  1
  C  C9  1  0.50000000  0.12720974  0.75000000  1
  C  C10  1  -0.00000000  0.62720974  0.75000000  1
  C  C11  1  0.50000000  0.87279026  0.25000000  1
