# generated using pymatgen
data_Ti7FeN8
_symmetry_space_group_name_H-M   'P 1'
_cell_length_a   7.01449013
_cell_length_b   6.94789603
_cell_length_c   8.34876461
_cell_angle_alpha   90.00137519
_cell_angle_beta   89.36536762
_cell_angle_gamma   119.69535529
_symmetry_Int_Tables_number   1
_chemical_formula_structural   Ti7FeN8
_chemical_formula_sum   'Ti14 Fe2 N16'
_cell_volume   353.42076755
_cell_formula_units_Z   2
loop_
 _symmetry_equiv_pos_site_id
 _symmetry_equiv_pos_as_xyz
  1  'x, y, z'
loop_
 _atom_site_type_symbol
 _atom_site_label
 _atom_site_symmetry_multiplicity
 _atom_site_fract_x
 _atom_site_fract_y
 _atom_site_fract_z
 _atom_site_occupancy
  Ti  Ti0  1  0.15709337  0.32853855  0.23067495  1
  Ti  Ti1  1  0.33533425  0.17007360  0.96651054  1
  Ti  Ti2  1  0.32787272  0.16754866  0.47758615  1
  Ti  Ti3  1  0.16676561  0.83335725  0.21985469  1
  Ti  Ti4  1  0.33534514  0.66523786  0.96648662  1
  Ti  Ti5  1  0.16479683  0.83236124  0.72280639  1
  Ti  Ti6  1  0.32793345  0.66039095  0.47758098  1
  Ti  Ti7  1  0.66464310  0.32998059  0.22448107  1
  Ti  Ti8  1  0.84274982  0.17139827  0.96034716  1
  Ti  Ti9  1  0.67209124  0.33249214  0.71340687  1
  Ti  Ti10  1  0.66467564  0.83468355  0.22449842  1
  Ti  Ti11  1  0.83338412  0.66670402  0.97113673  1
  Ti  Ti12  1  0.67211471  0.83959428  0.71340474  1
  Ti  Ti13  1  0.83529829  0.66765999  0.46816448  1
  Fe  Fe14  1  0.17008229  0.33503878  0.72946762  1
  Fe  Fe15  1  0.82984871  0.16495589  0.46159983  1
  N  N16  1  0.16134410  0.33068953  0.47985480  1
  N  N17  1  0.33049399  0.16773404  0.22322194  1
  N  N18  1  0.17025251  0.33511402  0.97251100  1
  N  N19  1  0.34198367  0.16505777  0.72161383  1
  N  N20  1  0.16635898  0.83315424  0.47211243  1
  N  N21  1  0.33050857  0.66277244  0.22320522  1
  N  N22  1  0.16581015  0.83286274  0.97066076  1
  N  N23  1  0.34204956  0.67692925  0.72161842  1
  N  N24  1  0.65794920  0.33497108  0.46937792  1
  N  N25  1  0.82953515  0.16478502  0.21853762  1
  N  N26  1  0.66945193  0.33235296  0.96776175  1
  N  N27  1  0.83854829  0.16929388  0.71119413  1
  N  N28  1  0.65799050  0.82302430  0.46936950  1
  N  N29  1  0.83441042  0.66721880  0.22031994  1
  N  N30  1  0.66950996  0.83712806  0.96777572  1
  N  N31  1  0.83377377  0.66689627  0.71885783  1
