# generated using pymatgen
data_Ti7SiN8
_symmetry_space_group_name_H-M   'P 1'
_cell_length_a   6.93253996
_cell_length_b   6.93010023
_cell_length_c   8.46559669
_cell_angle_alpha   89.74095422
_cell_angle_beta   90.00000000
_cell_angle_gamma   120.01164637
_symmetry_Int_Tables_number   1
_chemical_formula_structural   Ti7SiN8
_chemical_formula_sum   'Ti14 Si2 N16'
_cell_volume   352.17879592
_cell_formula_units_Z   2
loop_
 _symmetry_equiv_pos_site_id
 _symmetry_equiv_pos_as_xyz
  1  'x, y, z'
loop_
 _atom_site_type_symbol
 _atom_site_label
 _atom_site_symmetry_multiplicity
 _atom_site_fract_x
 _atom_site_fract_y
 _atom_site_fract_z
 _atom_site_occupancy
  Ti  Ti0  1  0.16382126  0.32764251  0.21754658  1
  Ti  Ti1  1  0.33613645  0.16077296  0.96696507  1
  Ti  Ti2  1  0.16611940  0.33223878  0.72190881  1
  Ti  Ti3  1  0.33034502  0.16593464  0.47381905  1
  Ti  Ti4  1  0.16993137  0.84178920  0.22312963  1
  Ti  Ti5  1  0.33651022  0.67302047  0.97264168  1
  Ti  Ti6  1  0.16444173  0.83207568  0.71776864  1
  Ti  Ti7  1  0.33337896  0.66675795  0.46900517  1
  Ti  Ti8  1  0.82463648  0.16077296  0.96696507  1
  Ti  Ti9  1  0.66665798  0.33331599  0.71476956  1
  Ti  Ti10  1  0.83558959  0.16593464  0.47381905  1
  Ti  Ti11  1  0.67185784  0.84178920  0.22312963  1
  Ti  Ti12  1  0.66763395  0.83207568  0.71776864  1
  Ti  Ti13  1  0.83693046  0.67386095  0.47191622  1
  Si  Si14  1  0.66778014  0.33556027  0.23779649  1
  Si  Si15  1  0.82926584  0.65853171  0.98374129  1
  N  N16  1  0.16640650  0.33281302  0.46997555  1
  N  N17  1  0.37503839  0.18828929  0.21886837  1
  N  N18  1  0.16571973  0.33143946  0.97027948  1
  N  N19  1  0.33746313  0.16729702  0.72023118  1
  N  N20  1  0.16495407  0.83292953  0.47024421  1
  N  N21  1  0.33385591  0.66771185  0.22023536  1
  N  N22  1  0.12422629  0.81206387  0.97168018  1
  N  N23  1  0.33370233  0.66740466  0.72130096  1
  N  N24  1  0.67004761  0.34009522  0.45839477  1
  N  N25  1  0.81325090  0.18828929  0.21886837  1
  N  N26  1  0.68274995  0.36549990  0.96749654  1
  N  N27  1  0.82983388  0.16729702  0.72023118  1
  N  N28  1  0.66797549  0.83292953  0.47024421  1
  N  N29  1  0.81507239  0.63014477  0.21046331  1
  N  N30  1  0.68783759  0.81206387  0.97168018  1
  N  N31  1  0.83082908  0.66165815  0.72311566  1
