# generated using pymatgen
data_Ti7NiN8
_symmetry_space_group_name_H-M   'P 1'
_cell_length_a   7.10258373
_cell_length_b   6.94121974
_cell_length_c   8.38185165
_cell_angle_alpha   90.00000003
_cell_angle_beta   90.02948447
_cell_angle_gamma   119.25126293
_symmetry_Int_Tables_number   1
_chemical_formula_structural   Ti7NiN8
_chemical_formula_sum   'Ti14 Ni2 N16'
_cell_volume   360.53724591
_cell_formula_units_Z   2
loop_
 _symmetry_equiv_pos_site_id
 _symmetry_equiv_pos_as_xyz
  1  'x, y, z'
loop_
 _atom_site_type_symbol
 _atom_site_label
 _atom_site_symmetry_multiplicity
 _atom_site_fract_x
 _atom_site_fract_y
 _atom_site_fract_z
 _atom_site_occupancy
  Ni  Ni0  1  0.29627712  0.39813855  0.21914598  1
  Ni  Ni1  1  0.29623420  0.89811711  0.71918809  1
  Ti  Ti2  1  0.32485086  0.16204480  0.97040313  1
  Ti  Ti3  1  0.15833319  0.32916658  0.72064864  1
  Ti  Ti4  1  0.32477271  0.16273855  0.47039128  1
  Ti  Ti5  1  0.15827910  0.82913955  0.22063149  1
  Ti  Ti6  1  0.32485086  0.66280607  0.97040313  1
  Ti  Ti7  1  0.32477271  0.66203416  0.47039128  1
  Ti  Ti8  1  0.65642829  0.33150070  0.22059051  1
  Ti  Ti9  1  0.82934987  0.16467493  0.97383482  1
  Ti  Ti10  1  0.65640437  0.32487872  0.72059364  1
  Ti  Ti11  1  0.82896624  0.16448312  0.46750173  1
  Ti  Ti12  1  0.65642829  0.82492760  0.22059051  1
  Ti  Ti13  1  0.82897717  0.66448860  0.96747752  1
  Ti  Ti14  1  0.65640437  0.83152565  0.72059364  1
  Ti  Ti15  1  0.82919925  0.66459963  0.47381287  1
  N  N16  1  0.15003719  0.32501860  0.46823162  1
  N  N17  1  0.33379747  0.14803195  0.22048772  1
  N  N18  1  0.15086433  0.32543216  0.97324102  1
  N  N19  1  0.33378647  0.18573436  0.72048849  1
  N  N20  1  0.15067416  0.82533708  0.47321525  1
  N  N21  1  0.33379747  0.68576553  0.22048772  1
  N  N22  1  0.15001226  0.82500613  0.96821182  1
  N  N23  1  0.33378647  0.64805212  0.72048849  1
  N  N24  1  0.66011967  0.33016839  0.47057570  1
  N  N25  1  0.79809401  0.14904701  0.22066559  1
  N  N26  1  0.66019780  0.32995167  0.97057041  1
  N  N27  1  0.83805029  0.16902514  0.72068540  1
  N  N28  1  0.66011967  0.82995125  0.47057570  1
  N  N29  1  0.83799263  0.66899633  0.22066168  1
  N  N30  1  0.66019780  0.83024613  0.97057041  1
  N  N31  1  0.79794367  0.64897184  0.72064474  1
