# generated using pymatgen
data_Al7VN8
_symmetry_space_group_name_H-M   'P 1'
_cell_length_a   6.30699635
_cell_length_b   6.30697129
_cell_length_c   10.05167285
_cell_angle_alpha   90.13933581
_cell_angle_beta   89.86145648
_cell_angle_gamma   119.96240101
_symmetry_Int_Tables_number   1
_chemical_formula_structural   Al7VN8
_chemical_formula_sum   'Al14 V2 N16'
_cell_volume   346.39779978
_cell_formula_units_Z   2
loop_
 _symmetry_equiv_pos_site_id
 _symmetry_equiv_pos_as_xyz
  1  'x, y, z'
loop_
 _atom_site_type_symbol
 _atom_site_label
 _atom_site_symmetry_multiplicity
 _atom_site_fract_x
 _atom_site_fract_y
 _atom_site_fract_z
 _atom_site_occupancy
  Al  Al0  1  0.17005239  0.33401094  0.25301340  1
  Al  Al1  1  0.32965790  0.16578896  0.99922014  1
  Al  Al2  1  0.16782897  0.33460830  0.74833272  1
  Al  Al3  1  0.33428679  0.16630708  0.50048900  1
  Al  Al4  1  0.16663105  0.83326339  0.25181540  1
  Al  Al5  1  0.33287748  0.66707477  0.00109503  1
  Al  Al6  1  0.16676112  0.83336235  0.74963648  1
  Al  Al7  1  0.33324515  0.66677686  0.50053726  1
  Al  Al8  1  0.66532732  0.33476883  0.74806780  1
  Al  Al9  1  0.83316118  0.16678880  0.50047961  1
  Al  Al10  1  0.66589287  0.82982712  0.25297273  1
  Al  Al11  1  0.83422535  0.67033332  0.99921457  1
  Al  Al12  1  0.66549262  0.83227452  0.74840331  1
  Al  Al13  1  0.83370663  0.66572779  0.50050513  1
  V  V14  1  0.66988055  0.33002601  0.24188066  1
  V  V15  1  0.83197414  0.16807853  0.99788837  1
  N  N16  1  0.16762624  0.33325993  0.44300357  1
  N  N17  1  0.32177456  0.15983193  0.18903446  1
  N  N18  1  0.17523574  0.33941619  0.93839717  1
  N  N19  1  0.33212326  0.16556311  0.69131508  1
  N  N20  1  0.16688481  0.83310895  0.44175732  1
  N  N21  1  0.33369768  0.66616227  0.19233340  1
  N  N22  1  0.16695531  0.83306729  0.94053983  1
  N  N23  1  0.33295070  0.66718826  0.69041581  1
  N  N24  1  0.66683689  0.33316861  0.44636932  1
  N  N25  1  0.84023402  0.15967466  0.19473274  1
  N  N26  1  0.65952468  0.34047060  0.93979287  1
  N  N27  1  0.83322148  0.16683418  0.69297192  1
  N  N28  1  0.66672958  0.83234296  0.44296856  1
  N  N29  1  0.84009211  0.67811690  0.18901766  1
  N  N30  1  0.66058301  0.82478181  0.93846377  1
  N  N31  1  0.83452842  0.66799479  0.69133496  1
