# generated using pymatgen
data_Al7ReN8
_symmetry_space_group_name_H-M   'P 1'
_cell_length_a   6.33297740
_cell_length_b   6.33297608
_cell_length_c   10.20938092
_cell_angle_alpha   89.96986714
_cell_angle_beta   90.03013335
_cell_angle_gamma   121.67016412
_symmetry_Int_Tables_number   1
_chemical_formula_structural   Al7ReN8
_chemical_formula_sum   'Al14 Re2 N16'
_cell_volume   348.48802566
_cell_formula_units_Z   2
loop_
 _symmetry_equiv_pos_site_id
 _symmetry_equiv_pos_as_xyz
  1  'x, y, z'
loop_
 _atom_site_type_symbol
 _atom_site_label
 _atom_site_symmetry_multiplicity
 _atom_site_fract_x
 _atom_site_fract_y
 _atom_site_fract_z
 _atom_site_occupancy
  Al  Al0  1  0.16647224  0.33353191  0.25385738  1
  Al  Al1  1  0.16514581  0.33485284  0.74378345  1
  Al  Al2  1  0.33317276  0.16682773  0.50107289  1
  Al  Al3  1  0.16750434  0.83209753  0.25496479  1
  Al  Al4  1  0.33756895  0.66197068  0.00520809  1
  Al  Al5  1  0.17049952  0.82969987  0.74662843  1
  Al  Al6  1  0.33348906  0.66652005  0.49858372  1
  Al  Al7  1  0.66789733  0.33249267  0.25496202  1
  Al  Al8  1  0.83803375  0.16244018  0.00520906  1
  Al  Al9  1  0.67030088  0.32950148  0.74662625  1
  Al  Al10  1  0.83348023  0.16651109  0.49858432  1
  Al  Al11  1  0.66675314  0.83324534  0.25367002  1
  Al  Al12  1  0.66499494  0.83500970  0.74351744  1
  Al  Al13  1  0.83318586  0.66681434  0.50116861  1
  Re  Re14  1  0.32326622  0.17676430  0.00319632  1
  Re  Re15  1  0.82258363  0.67731898  0.00203947  1
  N  N16  1  0.16858241  0.33141719  0.44128107  1
  N  N17  1  0.33278955  0.16720354  0.20386998  1
  N  N18  1  0.15565674  0.34434876  0.93103019  1
  N  N19  1  0.33199461  0.16800773  0.69133475  1
  N  N20  1  0.16856381  0.83135082  0.44352069  1
  N  N21  1  0.33117266  0.66892358  0.19376109  1
  N  N22  1  0.18134800  0.81901881  0.93267603  1
  N  N23  1  0.33287185  0.66700773  0.68419670  1
  N  N24  1  0.66865003  0.33143575  0.44351964  1
  N  N25  1  0.83107970  0.16882472  0.19375646  1
  N  N26  1  0.68100191  0.31866161  0.93267485  1
  N  N27  1  0.83299183  0.16713061  0.68419581  1
  N  N28  1  0.66864408  0.83135698  0.44126225  1
  N  N29  1  0.83295821  0.66703711  0.20340917  1
  N  N30  1  0.65538639  0.84463642  0.93087439  1
  N  N31  1  0.83195956  0.66803994  0.69156470  1
