# generated using pymatgen
data_Al7NiN8
_symmetry_space_group_name_H-M   'P 1'
_cell_length_a   6.25550402
_cell_length_b   6.25558282
_cell_length_c   10.07924545
_cell_angle_alpha   89.99999848
_cell_angle_beta   89.80605265
_cell_angle_gamma   120.00042285
_symmetry_Int_Tables_number   1
_chemical_formula_structural   Al7NiN8
_chemical_formula_sum   'Al14 Ni2 N16'
_cell_volume   341.57302834
_cell_formula_units_Z   2
loop_
 _symmetry_equiv_pos_site_id
 _symmetry_equiv_pos_as_xyz
  1  'x, y, z'
loop_
 _atom_site_type_symbol
 _atom_site_label
 _atom_site_symmetry_multiplicity
 _atom_site_fract_x
 _atom_site_fract_y
 _atom_site_fract_z
 _atom_site_occupancy
  Al  Al0  1  0.16637089  0.33318482  0.24980984  1
  Al  Al1  1  0.33341555  0.16668931  0.00079910  1
  Al  Al2  1  0.17243554  0.33621205  0.75412658  1
  Al  Al3  1  0.33154469  0.16575482  0.49960875  1
  Al  Al4  1  0.16631191  0.83315654  0.24981993  1
  Al  Al5  1  0.33341325  0.66672508  0.00079902  1
  Al  Al6  1  0.17224865  0.83612990  0.75412877  1
  Al  Al7  1  0.33154473  0.66579007  0.49960540  1
  Al  Al8  1  0.66608970  0.33303609  0.24897275  1
  Al  Al9  1  0.83425980  0.16713113  0.00030287  1
  Al  Al10  1  0.83123874  0.16561935  0.49725056  1
  Al  Al11  1  0.66609039  0.83305384  0.24897276  1
  Al  Al12  1  0.83419936  0.66709848  0.00029739  1
  Al  Al13  1  0.83114196  0.66557100  0.49728789  1
  Ni  Ni14  1  0.67185521  0.33582586  0.74912262  1
  Ni  Ni15  1  0.67185775  0.83603019  0.74912036  1
  N  N16  1  0.16551853  0.33275944  0.43963632  1
  N  N17  1  0.33283277  0.16640060  0.19094261  1
  N  N18  1  0.16756157  0.33378060  0.94207990  1
  N  N19  1  0.32344817  0.16168633  0.68858590  1
  N  N20  1  0.16542682  0.83271355  0.43965316  1
  N  N21  1  0.33283300  0.66643224  0.19094216  1
  N  N22  1  0.16749280  0.83374654  0.94208099  1
  N  N23  1  0.32345070  0.66176326  0.68858579  1
  N  N24  1  0.66475826  0.33236495  0.43948928  1
  N  N25  1  0.83384931  0.16692443  0.19120608  1
  N  N26  1  0.66738891  0.33367653  0.94687149  1
  N  N27  1  0.83785884  0.16892897  0.68914741  1
  N  N28  1  0.66475823  0.83239332  0.43948979  1
  N  N29  1  0.83380159  0.66690102  0.19119963  1
  N  N30  1  0.66738867  0.83371221  0.94687004  1
  N  N31  1  0.83761374  0.66880748  0.68919497  1
