# generated using pymatgen
data_Al7CoN8
_symmetry_space_group_name_H-M   'P 1'
_cell_length_a   6.26536914
_cell_length_b   6.26536913
_cell_length_c   10.04499775
_cell_angle_alpha   89.52685041
_cell_angle_beta   90.47314975
_cell_angle_gamma   119.86951713
_symmetry_Int_Tables_number   1
_chemical_formula_structural   Al7CoN8
_chemical_formula_sum   'Al14 Co2 N16'
_cell_volume   341.91925225
_cell_formula_units_Z   2
loop_
 _symmetry_equiv_pos_site_id
 _symmetry_equiv_pos_as_xyz
  1  'x, y, z'
loop_
 _atom_site_type_symbol
 _atom_site_label
 _atom_site_symmetry_multiplicity
 _atom_site_fract_x
 _atom_site_fract_y
 _atom_site_fract_z
 _atom_site_occupancy
  Al  Al0  1  0.16435505  0.33564514  0.24943277  1
  Al  Al1  1  0.33398061  0.16601948  0.49781787  1
  Al  Al2  1  0.16535031  0.83315441  0.24919640  1
  Al  Al3  1  0.33633000  0.67497110  0.00157082  1
  Al  Al4  1  0.16688876  0.83045385  0.74981631  1
  Al  Al5  1  0.33377509  0.66444040  0.50047135  1
  Al  Al6  1  0.66684590  0.33464996  0.24919639  1
  Al  Al7  1  0.82502866  0.16366990  0.00157088  1
  Al  Al8  1  0.66954626  0.33311117  0.74981638  1
  Al  Al9  1  0.83555971  0.16622496  0.50047125  1
  Al  Al10  1  0.66641128  0.83358864  0.25103573  1
  Al  Al11  1  0.83221963  0.66778015  0.00108305  1
  Al  Al12  1  0.66927057  0.83072969  0.75113665  1
  Al  Al13  1  0.83412852  0.66587154  0.49953312  1
  Co  Co14  1  0.32824964  0.17175017  0.99809569  1
  Co  Co15  1  0.17194544  0.32805468  0.75715100  1
  N  N16  1  0.16656662  0.33343346  0.43947903  1
  N  N17  1  0.33075128  0.16924836  0.19281628  1
  N  N18  1  0.16096361  0.33903660  0.94495769  1
  N  N19  1  0.33971805  0.16028225  0.68618001  1
  N  N20  1  0.16677839  0.83228732  0.43962801  1
  N  N21  1  0.33346073  0.66894793  0.19094936  1
  N  N22  1  0.16078509  0.82726035  0.93930455  1
  N  N23  1  0.33878929  0.66919811  0.69107359  1
  N  N24  1  0.66771277  0.33322169  0.43962792  1
  N  N25  1  0.83105215  0.16653924  0.19094936  1
  N  N26  1  0.67273848  0.33921429  0.93930467  1
  N  N27  1  0.83080218  0.16121106  0.69107373  1
  N  N28  1  0.66695284  0.83304717  0.44089107  1
  N  N29  1  0.83247499  0.66752521  0.19101620  1
  N  N30  1  0.66587232  0.83412759  0.94150667  1
  N  N31  1  0.83469578  0.66530412  0.68984622  1
