# generated using pymatgen
data_Al7MoN8
_symmetry_space_group_name_H-M   'P 1'
_cell_length_a   6.18696860
_cell_length_b   6.32241087
_cell_length_c   10.26269390
_cell_angle_alpha   89.30735391
_cell_angle_beta   90.00000006
_cell_angle_gamma   119.29384026
_symmetry_Int_Tables_number   1
_chemical_formula_structural   Al7MoN8
_chemical_formula_sum   'Al14 Mo2 N16'
_cell_volume   350.07206783
_cell_formula_units_Z   2
loop_
 _symmetry_equiv_pos_site_id
 _symmetry_equiv_pos_as_xyz
  1  'x, y, z'
loop_
 _atom_site_type_symbol
 _atom_site_label
 _atom_site_symmetry_multiplicity
 _atom_site_fract_x
 _atom_site_fract_y
 _atom_site_fract_z
 _atom_site_occupancy
  Mo  Mo0  1  0.17182678  0.34365392  0.25965287  1
  Mo  Mo1  1  0.67195746  0.34391454  0.25946629  1
  Al  Al2  1  0.32808892  0.15620340  0.99379157  1
  Al  Al3  1  0.16722519  0.33445038  0.74962353  1
  Al  Al4  1  0.33658486  0.17311246  0.50603275  1
  Al  Al5  1  0.16255138  0.82497823  0.25137068  1
  Al  Al6  1  0.33130172  0.66260344  0.99403602  1
  Al  Al7  1  0.16686459  0.83373697  0.75025378  1
  Al  Al8  1  0.33868472  0.67736945  0.50558446  1
  Al  Al9  1  0.82811448  0.15620340  0.99379154  1
  Al  Al10  1  0.66721457  0.33442914  0.74964794  1
  Al  Al11  1  0.83652762  0.17311248  0.50603274  1
  Al  Al12  1  0.66242683  0.82497821  0.25137068  1
  Al  Al13  1  0.83130723  0.66261446  0.99397755  1
  Al  Al14  1  0.66687240  0.83373697  0.75025378  1
  Al  Al15  1  0.83865358  0.67730715  0.50558150  1
  N  N16  1  0.17279454  0.34558906  0.45944077  1
  N  N17  1  0.31776167  0.13551987  0.17690201  1
  N  N18  1  0.16636266  0.33272534  0.93798519  1
  N  N19  1  0.33173872  0.16346841  0.69359259  1
  N  N20  1  0.17286554  0.84575159  0.44065325  1
  N  N21  1  0.33729576  0.67459150  0.18275380  1
  N  N22  1  0.16429626  0.82859394  0.93510191  1
  N  N23  1  0.33381349  0.66762697  0.69134550  1
  N  N24  1  0.67279227  0.34558458  0.45939160  1
  N  N25  1  0.81775817  0.13551979  0.17690198  1
  N  N26  1  0.66635822  0.33271645  0.93801360  1
  N  N27  1  0.83172969  0.16346841  0.69359259  1
  N  N28  1  0.67288602  0.84575157  0.44065324  1
  N  N29  1  0.83725104  0.67450210  0.18275375  1
  N  N30  1  0.66429768  0.82859394  0.93510191  1
  N  N31  1  0.83379591  0.66759184  0.69134864  1
