# generated using pymatgen
data_HfTi7N8
_symmetry_space_group_name_H-M   'P 1'
_cell_length_a   7.08205081
_cell_length_b   7.07891475
_cell_length_c   8.54760948
_cell_angle_alpha   90.00000219
_cell_angle_beta   89.99986667
_cell_angle_gamma   119.98534716
_symmetry_Int_Tables_number   1
_chemical_formula_structural   HfTi7N8
_chemical_formula_sum   'Hf2 Ti14 N16'
_cell_volume   371.16338766
_cell_formula_units_Z   2
loop_
 _symmetry_equiv_pos_site_id
 _symmetry_equiv_pos_as_xyz
  1  'x, y, z'
loop_
 _atom_site_type_symbol
 _atom_site_label
 _atom_site_symmetry_multiplicity
 _atom_site_fract_x
 _atom_site_fract_y
 _atom_site_fract_z
 _atom_site_occupancy
  Ti  Ti0  1  0.16913613  0.33456704  0.22330979  1
  Ti  Ti1  1  0.32941552  0.16461394  0.97050464  1
  Ti  Ti2  1  0.16927589  0.33463673  0.71771339  1
  Ti  Ti3  1  0.33291158  0.16633048  0.47050642  1
  Ti  Ti4  1  0.16866012  0.83433103  0.22328330  1
  Ti  Ti5  1  0.32941644  0.66480212  0.97050498  1
  Ti  Ti6  1  0.16881290  0.83440761  0.71772901  1
  Ti  Ti7  1  0.33291326  0.66658198  0.47050659  1
  Ti  Ti8  1  0.66427906  0.33200958  0.22935560  1
  Ti  Ti9  1  0.66445839  0.33210168  0.71162594  1
  Ti  Ti10  1  0.83444709  0.16722256  0.47049440  1
  Ti  Ti11  1  0.66428079  0.83227045  0.22935554  1
  Ti  Ti12  1  0.66446018  0.83235768  0.71162651  1
  Ti  Ti13  1  0.83394884  0.66697522  0.47049802  1
  Hf  Hf14  1  0.83560764  0.16780312  0.97049628  1
  Hf  Hf15  1  0.83506070  0.66753099  0.97049032  1
  N  N16  1  0.16801231  0.33400478  0.47050993  1
  N  N17  1  0.33483995  0.16719259  0.22252082  1
  N  N18  1  0.17981503  0.33990680  0.97051048  1
  N  N19  1  0.33501694  0.16729193  0.71849061  1
  N  N20  1  0.16705349  0.83352814  0.47050685  1
  N  N21  1  0.33484153  0.66764815  0.22252057  1
  N  N22  1  0.17885830  0.83942990  0.97050279  1
  N  N23  1  0.33501840  0.66772575  0.71849086  1
  N  N24  1  0.66685628  0.33319873  0.47049155  1
  N  N25  1  0.83292145  0.16645976  0.22522265  1
  N  N26  1  0.65280197  0.32615513  0.97049786  1
  N  N27  1  0.83306585  0.16653200  0.71576409  1
  N  N28  1  0.66685804  0.83365843  0.47049156  1
  N  N29  1  0.83199365  0.66599778  0.22522432  1
  N  N30  1  0.65280260  0.82664717  0.97049782  1
  N  N31  1  0.83215969  0.66608078  0.71575663  1
