# generated using pymatgen
data_ZrTiC2
_symmetry_space_group_name_H-M   'P 1'
_cell_length_a   5.33175123
_cell_length_b   6.19653920
_cell_length_c   11.34044220
_cell_angle_alpha   73.88993050
_cell_angle_beta   76.09590929
_cell_angle_gamma   73.24937594
_symmetry_Int_Tables_number   1
_chemical_formula_structural   ZrTiC2
_chemical_formula_sum   'Zr8 Ti8 C16'
_cell_volume   339.40882763
_cell_formula_units_Z   8
loop_
 _symmetry_equiv_pos_site_id
 _symmetry_equiv_pos_as_xyz
  1  'x, y, z'
loop_
 _atom_site_type_symbol
 _atom_site_label
 _atom_site_symmetry_multiplicity
 _atom_site_fract_x
 _atom_site_fract_y
 _atom_site_fract_z
 _atom_site_occupancy
  C  C0  1  0.74677389  0.71724550  0.67795335  1
  C  C1  1  0.24085429  0.52932316  0.80702209  1
  C  C2  1  0.74452458  0.60172187  0.43744416  1
  C  C3  1  0.25163873  0.76840609  0.32251665  1
  C  C4  1  0.74108855  0.23022242  0.68270751  1
  C  C5  1  0.25595765  0.41150836  0.56246354  1
  C  C6  1  0.24666352  0.04331711  0.80266837  1
  C  C7  1  0.75924895  0.47062151  0.19340149  1
  C  C8  1  0.23838253  0.64992728  0.06631973  1
  C  C9  1  0.73831273  0.08785471  0.44258116  1
  C  C10  1  0.26058127  0.28470787  0.31674658  1
  C  C11  1  0.26120267  0.89944327  0.55761606  1
  C  C12  1  0.76243382  0.35026136  0.93290013  1
  C  C13  1  0.75308486  0.95623216  0.19697423  1
  C  C14  1  0.24495859  0.16476064  0.06267201  1
  C  C15  1  0.75400812  0.83462080  0.93804456  1
  Ti  Ti16  1  0.49810306  0.06494424  0.62110978  1
  Ti  Ti17  1  0.00008256  0.74752114  0.50033314  1
  Ti  Ti18  1  0.50198200  0.93265874  0.37908139  1
  Ti  Ti19  1  0.49910791  0.56501174  0.62061408  1
  Ti  Ti20  1  0.99948378  0.62231208  0.25622420  1
  Ti  Ti21  1  0.50119482  0.43802306  0.37921169  1
  Ti  Ti22  1  0.00012247  0.50017842  0.99987535  1
  Ti  Ti23  1  0.00047998  0.37972708  0.74354748  1
  Zr  Zr24  1  0.00040783  0.25321374  0.49974113  1
  Zr  Zr25  1  0.00203570  0.12127266  0.25673758  1
  Zr  Zr26  1  0.50523968  0.31231306  0.12797189  1
  Zr  Zr27  1  0.99980419  0.99951249  0.00003558  1
  Zr  Zr28  1  0.49946956  0.19122055  0.87161909  1
  Zr  Zr29  1  0.49852253  0.80788062  0.12979163  1
  Zr  Zr30  1  0.99767258  0.87607040  0.74353685  1
  Zr  Zr31  1  0.49657658  0.68796589  0.87053750  1
