# generated using pymatgen
data_ZrTiC2
_symmetry_space_group_name_H-M   'P 1'
_cell_length_a   5.33175123
_cell_length_b   6.16710723
_cell_length_c   11.34101023
_cell_angle_alpha   73.88993051
_cell_angle_beta   76.09590932
_cell_angle_gamma   73.24937593
_symmetry_Int_Tables_number   1
_chemical_formula_structural   ZrTiC2
_chemical_formula_sum   'Zr8 Ti8 C16'
_cell_volume   337.81364258
_cell_formula_units_Z   8
loop_
 _symmetry_equiv_pos_site_id
 _symmetry_equiv_pos_as_xyz
  1  'x, y, z'
loop_
 _atom_site_type_symbol
 _atom_site_label
 _atom_site_symmetry_multiplicity
 _atom_site_fract_x
 _atom_site_fract_y
 _atom_site_fract_z
 _atom_site_occupancy
  C  C0  1  0.74664530  0.71732738  0.67792958  1
  C  C1  1  0.24073736  0.52927206  0.80702961  1
  C  C2  1  0.74449910  0.60181704  0.43739903  1
  C  C3  1  0.25173073  0.76828171  0.32255485  1
  C  C4  1  0.74097995  0.23031343  0.68269392  1
  C  C5  1  0.25596146  0.41151250  0.56249280  1
  C  C6  1  0.24653471  0.04351609  0.80262442  1
  C  C7  1  0.75936833  0.47064947  0.19341917  1
  C  C8  1  0.23838641  0.64983942  0.06629916  1
  C  C9  1  0.73832614  0.08781834  0.44257176  1
  C  C10  1  0.26074622  0.28461647  0.31675102  1
  C  C11  1  0.26118149  0.89939488  0.55763053  1
  C  C12  1  0.76247979  0.35034996  0.93291016  1
  C  C13  1  0.75322156  0.95605648  0.19699278  1
  C  C14  1  0.24492090  0.16487714  0.06264143  1
  C  C15  1  0.75398385  0.83452962  0.93809838  1
  Ti  Ti16  1  0.49811949  0.06499171  0.62110950  1
  Ti  Ti17  1  0.00011228  0.74759455  0.50036808  1
  Ti  Ti18  1  0.50178039  0.93286966  0.37900811  1
  Ti  Ti19  1  0.49910848  0.56506906  0.62059575  1
  Ti  Ti20  1  0.99952381  0.62223262  0.25625067  1
  Ti  Ti21  1  0.50144467  0.43775489  0.37929446  1
  Ti  Ti22  1  0.00010977  0.50014734  0.99987040  1
  Ti  Ti23  1  0.00042535  0.37976452  0.74349060  1
  Zr  Zr24  1  0.00043122  0.25319073  0.49972159  1
  Zr  Zr25  1  0.00206630  0.12118974  0.25674731  1
  Zr  Zr26  1  0.50538847  0.31213223  0.12801843  1
  Zr  Zr27  1  0.99978803  0.99951161  0.00003822  1
  Zr  Zr28  1  0.49960301  0.19110505  0.87166497  1
  Zr  Zr29  1  0.49835430  0.80796483  0.12977179  1
  Zr  Zr30  1  0.99762947  0.87617375  0.74354512  1
  Zr  Zr31  1  0.49641162  0.68813578  0.87046637  1
