# generated using pymatgen
data_ZrTiC2
_symmetry_space_group_name_H-M   'P 1'
_cell_length_a   5.34026517
_cell_length_b   6.20562117
_cell_length_c   11.34952417
_cell_angle_alpha   73.88993050
_cell_angle_beta   76.09590930
_cell_angle_gamma   73.24937591
_symmetry_Int_Tables_number   1
_chemical_formula_structural   ZrTiC2
_chemical_formula_sum   'Zr8 Ti8 C16'
_cell_volume   340.72170595
_cell_formula_units_Z   8
loop_
 _symmetry_equiv_pos_site_id
 _symmetry_equiv_pos_as_xyz
  1  'x, y, z'
loop_
 _atom_site_type_symbol
 _atom_site_label
 _atom_site_symmetry_multiplicity
 _atom_site_fract_x
 _atom_site_fract_y
 _atom_site_fract_z
 _atom_site_occupancy
  C  C0  1  0.74690971  0.71721517  0.67797785  1
  C  C1  1  0.24097689  0.52932185  0.80702888  1
  C  C2  1  0.74451474  0.60169497  0.43744909  1
  C  C3  1  0.25155151  0.76846504  0.32249175  1
  C  C4  1  0.74120169  0.23015434  0.68271602  1
  C  C5  1  0.25595383  0.41149495  0.56245587  1
  C  C6  1  0.24675973  0.04323845  0.80269749  1
  C  C7  1  0.75909854  0.47062653  0.19339245  1
  C  C8  1  0.23841540  0.64997039  0.06630331  1
  C  C9  1  0.73832940  0.08787575  0.44257615  1
  C  C10  1  0.26042011  0.28473250  0.31673990  1
  C  C11  1  0.26122302  0.89945997  0.55762295  1
  C  C12  1  0.76237794  0.35022568  0.93292490  1
  C  C13  1  0.75299734  0.95630325  0.19694708  1
  C  C14  1  0.24494938  0.16471905  0.06267942  1
  C  C15  1  0.75402806  0.83466303  0.93803188  1
  Ti  Ti16  1  0.49818467  0.06492529  0.62109516  1
  Ti  Ti17  1  0.00010557  0.74749585  0.50032595  1
  Ti  Ti18  1  0.50198628  0.93263872  0.37910544  1
  Ti  Ti19  1  0.49919442  0.56499270  0.62060487  1
  Ti  Ti20  1  0.99935110  0.62236451  0.25618261  1
  Ti  Ti21  1  0.50105268  0.43807084  0.37920614  1
  Ti  Ti22  1  0.00011031  0.50018045  0.99988080  1
  Ti  Ti23  1  0.00060015  0.37969422  0.74359130  1
  Zr  Zr24  1  0.00039297  0.25322365  0.49974960  1
  Zr  Zr25  1  0.00192586  0.12131040  0.25671379  1
  Zr  Zr26  1  0.50511094  0.31234134  0.12798073  1
  Zr  Zr27  1  0.99978110  0.99952652  0.00003481  1
  Zr  Zr28  1  0.49949303  0.19123066  0.87160455  1
  Zr  Zr29  1  0.49852015  0.80789478  0.12979415  1
  Zr  Zr30  1  0.99778065  0.87602253  0.74355733  1
  Zr  Zr31  1  0.49670283  0.68792664  0.87053776  1
