# generated using pymatgen
data_ZrTiC2
_symmetry_space_group_name_H-M   'P 1'
_cell_length_a   5.33486833
_cell_length_b   6.20022432
_cell_length_c   11.34412733
_cell_angle_alpha   73.88993050
_cell_angle_beta   76.09590928
_cell_angle_gamma   73.24937593
_symmetry_Int_Tables_number   1
_chemical_formula_structural   ZrTiC2
_chemical_formula_sum   'Zr8 Ti8 C16'
_cell_volume   339.91964562
_cell_formula_units_Z   8
loop_
 _symmetry_equiv_pos_site_id
 _symmetry_equiv_pos_as_xyz
  1  'x, y, z'
loop_
 _atom_site_type_symbol
 _atom_site_label
 _atom_site_symmetry_multiplicity
 _atom_site_fract_x
 _atom_site_fract_y
 _atom_site_fract_z
 _atom_site_occupancy
  C  C0  1  0.74683091  0.71723192  0.67796346  1
  C  C1  1  0.24090751  0.52932562  0.80702425  1
  C  C2  1  0.74452073  0.60170751  0.43744601  1
  C  C3  1  0.25160208  0.76842861  0.32250656  1
  C  C4  1  0.74113488  0.23019430  0.68271182  1
  C  C5  1  0.25595829  0.41150049  0.56245985  1
  C  C6  1  0.24670423  0.04328582  0.80268045  1
  C  C7  1  0.75918531  0.47062520  0.19339797  1
  C  C8  1  0.23839254  0.64994786  0.06631295  1
  C  C9  1  0.73831904  0.08786138  0.44257941  1
  C  C10  1  0.26051553  0.28471702  0.31674365  1
  C  C11  1  0.26121444  0.89944773  0.55761833  1
  C  C12  1  0.76241322  0.35024853  0.93291099  1
  C  C13  1  0.75304627  0.95626138  0.19696310  1
  C  C14  1  0.24495424  0.16474668  0.06267557  1
  C  C15  1  0.75401668  0.83464066  0.93803992  1
  Ti  Ti16  1  0.49813841  0.06493409  0.62110469  1
  Ti  Ti17  1  0.00009258  0.74751134  0.50033034  1
  Ti  Ti18  1  0.50198098  0.93265000  0.37909048  1
  Ti  Ti19  1  0.49914465  0.56500053  0.62061051  1
  Ti  Ti20  1  0.99942866  0.62233395  0.25620839  1
  Ti  Ti21  1  0.50113652  0.43804228  0.37920847  1
  Ti  Ti22  1  0.00011432  0.50018207  0.99987769  1
  Ti  Ti23  1  0.00053154  0.37971179  0.74356371  1
  Zr  Zr24  1  0.00040391  0.25321272  0.49974432  1
  Zr  Zr25  1  0.00198759  0.12128866  0.25672946  1
  Zr  Zr26  1  0.50518312  0.31232946  0.12797447  1
  Zr  Zr27  1  0.99979479  0.99952018  0.00003424  1
  Zr  Zr28  1  0.49948195  0.19122469  0.87161303  1
  Zr  Zr29  1  0.49851897  0.80788781  0.12979150  1
  Zr  Zr30  1  0.99771676  0.87605012  0.74354624  1
  Zr  Zr31  1  0.49662936  0.68794963  0.87053817  1
