# generated using pymatgen
data_ZrTiC2
_symmetry_space_group_name_H-M   'P 1'
_cell_length_a   5.34602268
_cell_length_b   6.21137868
_cell_length_c   11.35528168
_cell_angle_alpha   73.88993050
_cell_angle_beta   76.09590928
_cell_angle_gamma   73.24937594
_symmetry_Int_Tables_number   1
_chemical_formula_structural   ZrTiC2
_chemical_formula_sum   'Zr8 Ti8 C16'
_cell_volume   341.57869968
_cell_formula_units_Z   8
loop_
 _symmetry_equiv_pos_site_id
 _symmetry_equiv_pos_as_xyz
  1  'x, y, z'
loop_
 _atom_site_type_symbol
 _atom_site_label
 _atom_site_symmetry_multiplicity
 _atom_site_fract_x
 _atom_site_fract_y
 _atom_site_fract_z
 _atom_site_occupancy
  C  C0  1  0.74699248  0.71720011  0.67799392  1
  C  C1  1  0.24105667  0.52931969  0.80703524  1
  C  C2  1  0.74450300  0.60168286  0.43745131  1
  C  C3  1  0.25149669  0.76850446  0.32247421  1
  C  C4  1  0.74127188  0.23011516  0.68272225  1
  C  C5  1  0.25594893  0.41148910  0.56245350  1
  C  C6  1  0.24682484  0.04319200  0.80271799  1
  C  C7  1  0.75901222  0.47062503  0.19338493  1
  C  C8  1  0.23843566  0.64999680  0.06629095  1
  C  C9  1  0.73833589  0.08789217  0.44257253  1
  C  C10  1  0.26031907  0.28474660  0.31673370  1
  C  C11  1  0.26123724  0.89947416  0.55762782  1
  C  C12  1  0.76234974  0.35019953  0.93294055  1
  C  C13  1  0.75294374  0.95634611  0.19692992  1
  C  C14  1  0.24494351  0.16468814  0.06268327  1
  C  C15  1  0.75404450  0.83468656  0.93802318  1
  Ti  Ti16  1  0.49822698  0.06491950  0.62108669  1
  Ti  Ti17  1  0.00012106  0.74748074  0.50032109  1
  Ti  Ti18  1  0.50198919  0.93262781  0.37912146  1
  Ti  Ti19  1  0.49924303  0.56498530  0.62059776  1
  Ti  Ti20  1  0.99927243  0.62239500  0.25615405  1
  Ti  Ti21  1  0.50095744  0.43809891  0.37920427  1
  Ti  Ti22  1  0.00010831  0.50017622  0.99988364  1
  Ti  Ti23  1  0.00067605  0.37967457  0.74362207  1
  Zr  Zr24  1  0.00038015  0.25324274  0.49975391  1
  Zr  Zr25  1  0.00185714  0.12133334  0.25669454  1
  Zr  Zr26  1  0.50502423  0.31235359  0.12798954  1
  Zr  Zr27  1  0.99978580  0.99952765  0.00003169  1
  Zr  Zr28  1  0.49949742  0.19122993  0.87159456  1
  Zr  Zr29  1  0.49851570  0.80789725  0.12979702  1
  Zr  Zr30  1  0.99785093  0.87598878  0.74357352  1
  Zr  Zr31  1  0.49677807  0.68791019  0.87053894  1
