# generated using pymatgen
data_HfTiC2
_symmetry_space_group_name_H-M   'P 1'
_cell_length_a   10.91255622
_cell_length_b   10.91058848
_cell_length_c   5.45915153
_cell_angle_alpha   99.60291197
_cell_angle_beta   99.61111713
_cell_angle_gamma   33.62832153
_symmetry_Int_Tables_number   1
_chemical_formula_structural   HfTiC2
_chemical_formula_sum   'Hf8 Ti8 C16'
_cell_volume   354.44804313
_cell_formula_units_Z   8
loop_
 _symmetry_equiv_pos_site_id
 _symmetry_equiv_pos_as_xyz
  1  'x, y, z'
loop_
 _atom_site_type_symbol
 _atom_site_label
 _atom_site_symmetry_multiplicity
 _atom_site_fract_x
 _atom_site_fract_y
 _atom_site_fract_z
 _atom_site_occupancy
  C  C0  1  0.18315341  0.19435181  0.12202474  1
  C  C1  1  0.68781901  0.18744090  0.12502298  1
  C  C2  1  0.30378214  0.31352401  0.86833314  1
  C  C3  1  0.42767259  0.44705437  0.62509870  1
  C  C4  1  0.81753291  0.31781517  0.87941168  1
  C  C5  1  0.18743428  0.68762667  0.12413962  1
  C  C6  1  0.56496715  0.56544113  0.38319406  1
  C  C7  1  0.94222654  0.43045764  0.62794060  1
  C  C8  1  0.69281964  0.68198784  0.11473302  1
  C  C9  1  0.06476798  0.55459217  0.37762206  1
  C  C10  1  0.31541440  0.81494213  0.86373519  1
  C  C11  1  0.43208886  0.94282116  0.63483619  1
  C  C12  1  0.81480855  0.80502729  0.87579049  1
  C  C13  1  0.55382686  0.06306708  0.36934948  1
  C  C14  1  0.94703759  0.92794654  0.62584733  1
  C  C15  1  0.06494687  0.06563250  0.38328703  1
  Hf  Hf16  1  0.75054935  0.74543300  0.50036037  1
  Hf  Hf17  1  0.87628321  0.87042309  0.24941564  1
  Hf  Hf18  1  0.00359697  0.00019410  0.00063370  1
  Hf  Hf19  1  0.37535611  0.87815265  0.25036839  1
  Hf  Hf20  1  0.75170995  0.25197290  0.50381520  1
  Hf  Hf21  1  0.62213825  0.12418723  0.74815310  1
  Hf  Hf22  1  0.37062823  0.37559468  0.24765012  1
  Hf  Hf23  1  0.50002430  0.50359597  0.00065575  1
  Ti  Ti24  1  0.25128277  0.75124434  0.50199725  1
  Ti  Ti25  1  0.12593677  0.12799016  0.75106297  1
  Ti  Ti26  1  0.49570606  0.00086811  0.99708230  1
  Ti  Ti27  1  0.24610494  0.25089592  0.50081554  1
  Ti  Ti28  1  0.87837851  0.37541427  0.25069057  1
  Ti  Ti29  1  0.00020845  0.49620010  0.99671900  1
  Ti  Ti30  1  0.12438133  0.62282911  0.74931430  1
  Ti  Ti31  1  0.62741598  0.62527600  0.75089949  1
