# generated using pymatgen
data_HfTiC2
_symmetry_space_group_name_H-M   'P 1'
_cell_length_a   10.80232838
_cell_length_b   10.80038052
_cell_length_c   5.40400858
_cell_angle_alpha   99.60291197
_cell_angle_beta   99.61111712
_cell_angle_gamma   33.62832153
_symmetry_Int_Tables_number   1
_chemical_formula_structural   HfTiC2
_chemical_formula_sum   'Hf8 Ti8 C16'
_cell_volume   343.81532156
_cell_formula_units_Z   8
loop_
 _symmetry_equiv_pos_site_id
 _symmetry_equiv_pos_as_xyz
  1  'x, y, z'
loop_
 _atom_site_type_symbol
 _atom_site_label
 _atom_site_symmetry_multiplicity
 _atom_site_fract_x
 _atom_site_fract_y
 _atom_site_fract_z
 _atom_site_occupancy
  C  C0  1  0.18303022  0.19463445  0.12210232  1
  C  C1  1  0.68785358  0.18743279  0.12508790  1
  C  C2  1  0.30341241  0.31363481  0.86801301  1
  C  C3  1  0.42718596  0.44750065  0.62504057  1
  C  C4  1  0.81780570  0.31801677  0.87977044  1
  C  C5  1  0.18746088  0.68768957  0.12420537  1
  C  C6  1  0.56513822  0.56550180  0.38346454  1
  C  C7  1  0.94226802  0.43020299  0.62803691  1
  C  C8  1  0.69304795  0.68186196  0.11421643  1
  C  C9  1  0.06484906  0.55422146  0.37768762  1
  C  C10  1  0.31554921  0.81512389  0.86297859  1
  C  C11  1  0.43187130  0.94301302  0.63514990  1
  C  C12  1  0.81491876  0.80472145  0.87593277  1
  C  C13  1  0.55338384  0.06308531  0.36895130  1
  C  C14  1  0.94746367  0.92744231  0.62595188  1
  C  C15  1  0.06504782  0.06568307  0.38376769  1
  Hf  Hf16  1  0.75037089  0.74537872  0.50024465  1
  Hf  Hf17  1  0.87616256  0.87041603  0.24960825  1
  Hf  Hf18  1  0.00367980  0.00034034  0.00078773  1
  Hf  Hf19  1  0.37545386  0.87820086  0.25006962  1
  Hf  Hf20  1  0.75164411  0.25191540  0.50416350  1
  Hf  Hf21  1  0.62210088  0.12416259  0.74801166  1
  Hf  Hf22  1  0.37064808  0.37553616  0.24742275  1
  Hf  Hf23  1  0.50019469  0.50367690  0.00064899  1
  Ti  Ti24  1  0.25128908  0.75129130  0.50144119  1
  Ti  Ti25  1  0.12598735  0.12795144  0.75135266  1
  Ti  Ti26  1  0.49583774  0.00078982  0.99710425  1
  Ti  Ti27  1  0.24604253  0.25067628  0.50060236  1
  Ti  Ti28  1  0.87836658  0.37545775  0.25117885  1
  Ti  Ti29  1  0.00017744  0.49631139  0.99693169  1
  Ti  Ti30  1  0.12426366  0.62274164  0.74942345  1
  Ti  Ti31  1  0.62749413  0.62538708  0.75065114  1
