# generated using pymatgen
data_HfTiC2
_symmetry_space_group_name_H-M   'P 1'
_cell_length_a   11.35346758
_cell_length_b   11.35142034
_cell_length_c   5.67972331
_cell_angle_alpha   99.60291198
_cell_angle_beta   99.61111717
_cell_angle_gamma   33.62832151
_symmetry_Int_Tables_number   1
_chemical_formula_structural   HfTiC2
_chemical_formula_sum   'Hf8 Ti8 C16'
_cell_volume   399.17071577
_cell_formula_units_Z   8
loop_
 _symmetry_equiv_pos_site_id
 _symmetry_equiv_pos_as_xyz
  1  'x, y, z'
loop_
 _atom_site_type_symbol
 _atom_site_label
 _atom_site_symmetry_multiplicity
 _atom_site_fract_x
 _atom_site_fract_y
 _atom_site_fract_z
 _atom_site_occupancy
  C  C0  1  0.18351632  0.19331595  0.12120784  1
  C  C1  1  0.68778683  0.18743092  0.12468749  1
  C  C2  1  0.30541491  0.31287568  0.86951178  1
  C  C3  1  0.42936335  0.44546452  0.62547935  1
  C  C4  1  0.81632660  0.31723526  0.87769844  1
  C  C5  1  0.18715800  0.68730918  0.12364810  1
  C  C6  1  0.56407484  0.56516672  0.38217010  1
  C  C7  1  0.94253132  0.43145295  0.62811203  1
  C  C8  1  0.69195079  0.68227067  0.11686643  1
  C  C9  1  0.06456253  0.55619457  0.37786222  1
  C  C10  1  0.31492180  0.81365910  0.86674376  1
  C  C11  1  0.43278827  0.94211519  0.63368431  1
  C  C12  1  0.81438136  0.80646160  0.87495247  1
  C  C13  1  0.55565488  0.06314255  0.37139800  1
  C  C14  1  0.94564483  0.92976321  0.62558424  1
  C  C15  1  0.06441747  0.06568589  0.38116844  1
  Hf  Hf16  1  0.75128785  0.74579591  0.50104240  1
  Hf  Hf17  1  0.87680162  0.87049177  0.24853778  1
  Hf  Hf18  1  0.00333739  0.99952850  0.99989466  1
  Hf  Hf19  1  0.37492549  0.87770860  0.25168302  1
  Hf  Hf20  1  0.75211620  0.25229051  0.50232834  1
  Hf  Hf21  1  0.62231397  0.12429522  0.74873190  1
  Hf  Hf22  1  0.37054681  0.37581631  0.24876803  1
  Hf  Hf23  1  0.49916392  0.50325032  0.00083731  1
  Ti  Ti24  1  0.25133759  0.75067870  0.50511769  1
  Ti  Ti25  1  0.12570203  0.12839991  0.74929088  1
  Ti  Ti26  1  0.49472837  0.00145647  0.99673966  1
  Ti  Ti27  1  0.24628073  0.25221354  0.50228532  1
  Ti  Ti28  1  0.87864955  0.37516857  0.24760660  1
  Ti  Ti29  1  0.00053380  0.49544362  0.99533537  1
  Ti  Ti30  1  0.12473064  0.62332544  0.74895738  1
  Ti  Ti31  1  0.62704995  0.62459268  0.75206866  1
