# generated using pymatgen
data_CoSiNi
_symmetry_space_group_name_H-M   'P 1'
_cell_length_a   7.06955145
_cell_length_b   4.95093555
_cell_length_c   7.41876620
_cell_angle_alpha   90.00835846
_cell_angle_beta   89.97794796
_cell_angle_gamma   89.99899097
_symmetry_Int_Tables_number   1
_chemical_formula_structural   CoSiNi
_chemical_formula_sum   'Co8 Si8 Ni8'
_cell_volume   259.66342433
_cell_formula_units_Z   8
loop_
 _symmetry_equiv_pos_site_id
 _symmetry_equiv_pos_as_xyz
  1  'x, y, z'
loop_
 _atom_site_type_symbol
 _atom_site_label
 _atom_site_symmetry_multiplicity
 _atom_site_fract_x
 _atom_site_fract_y
 _atom_site_fract_z
 _atom_site_occupancy
  Si  Si0  1  0.61148959  0.70757223  0.12379992  1
  Si  Si1  1  0.89336150  0.20616710  0.12553659  1
  Si  Si2  1  0.39054359  0.28544551  0.37575207  1
  Si  Si3  1  0.10632915  0.79640540  0.37312276  1
  Si  Si4  1  0.61111094  0.71045897  0.62599431  1
  Si  Si5  1  0.88407533  0.21465498  0.62481920  1
  Si  Si6  1  0.39610029  0.28959547  0.87407802  1
  Si  Si7  1  0.10989073  0.79350687  0.87700009  1
  Co  Co8  1  0.21017283  0.03986580  0.12523854  1
  Co  Co9  1  0.78874315  0.96093724  0.37517709  1
  Co  Co10  1  0.93484747  0.66970132  0.12285827  1
  Co  Co11  1  0.43738729  0.82556456  0.37288741  1
  Co  Co12  1  0.71024007  0.45940243  0.87461535  1
  Co  Co13  1  0.56250989  0.16843670  0.62195005  1
  Co  Co14  1  0.93812346  0.67496401  0.62697663  1
  Co  Co15  1  0.43476295  0.82731275  0.87713207  1
  Ni  Ni16  1  0.28818358  0.53759961  0.12567834  1
  Ni  Ni17  1  0.71233739  0.45949042  0.37507636  1
  Ni  Ni18  1  0.56446320  0.16854794  0.12716407  1
  Ni  Ni19  1  0.06469526  0.33228278  0.37652609  1
  Ni  Ni20  1  0.20952723  0.04026913  0.62536354  1
  Ni  Ni21  1  0.28984741  0.54040396  0.62450223  1
  Ni  Ni22  1  0.78606940  0.96045785  0.87505823  1
  Ni  Ni23  1  0.06518830  0.33095694  0.87369278  1
