# generated using pymatgen
data_CoSiNi
_symmetry_space_group_name_H-M   'P 1'
_cell_length_a   7.06599448
_cell_length_b   4.97030037
_cell_length_c   7.40266669
_cell_angle_alpha   90.00672183
_cell_angle_beta   89.96651912
_cell_angle_gamma   89.95161462
_symmetry_Int_Tables_number   1
_chemical_formula_structural   CoSiNi
_chemical_formula_sum   'Co8 Si8 Ni8'
_cell_volume   259.98236636
_cell_formula_units_Z   8
loop_
 _symmetry_equiv_pos_site_id
 _symmetry_equiv_pos_as_xyz
  1  'x, y, z'
loop_
 _atom_site_type_symbol
 _atom_site_label
 _atom_site_symmetry_multiplicity
 _atom_site_fract_x
 _atom_site_fract_y
 _atom_site_fract_z
 _atom_site_occupancy
  Si  Si0  1  0.61048232  0.70681733  0.12610268  1
  Si  Si1  1  0.89051496  0.21147343  0.12286040  1
  Si  Si2  1  0.39052704  0.29366618  0.37612014  1
  Si  Si3  1  0.11367905  0.78340400  0.37790931  1
  Si  Si4  1  0.60995964  0.70616933  0.62374090  1
  Si  Si5  1  0.89191046  0.20873937  0.62751351  1
  Si  Si6  1  0.38920099  0.29541126  0.87368750  1
  Si  Si7  1  0.10407269  0.79195734  0.87180499  1
  Ni  Ni8  1  0.20995878  0.04196884  0.12461722  1
  Ni  Ni9  1  0.28787957  0.54293615  0.12534645  1
  Ni  Ni10  1  0.79181797  0.96015203  0.37484838  1
  Ni  Ni11  1  0.56398394  0.16810795  0.12347983  1
  Ni  Ni12  1  0.93711822  0.67073667  0.12629554  1
  Ni  Ni13  1  0.21467299  0.04088367  0.62504088  1
  Ni  Ni14  1  0.56580081  0.16927022  0.62646558  1
  Ni  Ni15  1  0.43429219  0.83092127  0.87575611  1
  Co  Co16  1  0.70932461  0.46025498  0.37296565  1
  Co  Co17  1  0.43626286  0.83145524  0.37436290  1
  Co  Co18  1  0.06145078  0.32648328  0.37645239  1
  Co  Co19  1  0.28905169  0.53960041  0.62474278  1
  Co  Co20  1  0.78992876  0.96022591  0.87584694  1
  Co  Co21  1  0.70810627  0.46198322  0.87661696  1
  Co  Co22  1  0.93529224  0.66563636  0.62387423  1
  Co  Co23  1  0.06471117  0.33174557  0.87354873  1
