# generated using pymatgen
data_CoSiNi
_symmetry_space_group_name_H-M   'P 1'
_cell_length_a   7.06290164
_cell_length_b   4.95317710
_cell_length_c   7.42625071
_cell_angle_alpha   89.93972221
_cell_angle_beta   89.97987733
_cell_angle_gamma   90.51959417
_symmetry_Int_Tables_number   1
_chemical_formula_structural   CoSiNi
_chemical_formula_sum   'Co8 Si8 Ni8'
_cell_volume   259.78764612
_cell_formula_units_Z   8
loop_
 _symmetry_equiv_pos_site_id
 _symmetry_equiv_pos_as_xyz
  1  'x, y, z'
loop_
 _atom_site_type_symbol
 _atom_site_label
 _atom_site_symmetry_multiplicity
 _atom_site_fract_x
 _atom_site_fract_y
 _atom_site_fract_z
 _atom_site_occupancy
  Si  Si0  1  0.61652777  0.71022213  0.12576323  1
  Si  Si1  1  0.89302851  0.21097278  0.12395474  1
  Si  Si2  1  0.39075980  0.28800448  0.37839332  1
  Si  Si3  1  0.10566684  0.79373966  0.37658645  1
  Si  Si4  1  0.61331504  0.71063109  0.62447491  1
  Si  Si5  1  0.89412122  0.20823640  0.62582377  1
  Si  Si6  1  0.38665038  0.28380175  0.87162639  1
  Si  Si7  1  0.10049278  0.79770792  0.87305985  1
  Ni  Ni8  1  0.21242816  0.03911276  0.12506362  1
  Ni  Ni9  1  0.29394272  0.53875211  0.12457441  1
  Ni  Ni10  1  0.78529964  0.96188365  0.37342620  1
  Ni  Ni11  1  0.56273562  0.17108163  0.12327653  1
  Ni  Ni12  1  0.43503701  0.82625173  0.37564947  1
  Ni  Ni13  1  0.28740613  0.53980902  0.62494435  1
  Ni  Ni14  1  0.71151314  0.46012682  0.87547919  1
  Ni  Ni15  1  0.43563266  0.82443799  0.87433223  1
  Co  Co16  1  0.70862261  0.46043738  0.37503770  1
  Co  Co17  1  0.93828565  0.67116329  0.12758768  1
  Co  Co18  1  0.06367995  0.33007927  0.37443320  1
  Co  Co19  1  0.21238477  0.03806072  0.62438310  1
  Co  Co20  1  0.78745238  0.96186420  0.87667214  1
  Co  Co21  1  0.56516574  0.16924730  0.62770872  1
  Co  Co22  1  0.93453970  0.67143687  0.62256996  1
  Co  Co23  1  0.06531179  0.33293905  0.87517884  1
