# generated using pymatgen
data_TiC
_symmetry_space_group_name_H-M   'P 1'
_cell_length_a   8.92311455
_cell_length_b   8.92311325
_cell_length_c   4.46183458
_cell_angle_alpha   90.00000334
_cell_angle_beta   89.99999974
_cell_angle_gamma   90.00000514
_symmetry_Int_Tables_number   1
_chemical_formula_structural   TiC
_chemical_formula_sum   'Ti16 C16'
_cell_volume   355.26002192
_cell_formula_units_Z   16
loop_
 _symmetry_equiv_pos_site_id
 _symmetry_equiv_pos_as_xyz
  1  'x, y, z'
loop_
 _atom_site_type_symbol
 _atom_site_label
 _atom_site_symmetry_multiplicity
 _atom_site_fract_x
 _atom_site_fract_y
 _atom_site_fract_z
 _atom_site_occupancy
  C  C0  1  0.25000000  0.25000000  0.50000002  1
  C  C1  1  0.25000000  0.49999999  0.00000000  1
  C  C2  1  0.49999999  0.24999999  0.00000000  1
  C  C3  1  0.50000000  0.50000000  0.50000000  1
  C  C4  1  0.25000000  0.75000000  0.50000002  1
  C  C5  1  0.25000000  0.99999999  0.00000000  1
  C  C6  1  0.49999999  0.74999999  0.00000000  1
  C  C7  1  0.50000000  0.00000000  0.50000000  1
  C  C8  1  0.75000000  0.25000000  0.50000002  1
  C  C9  1  0.75000000  0.49999999  0.00000000  1
  C  C10  1  0.99999999  0.24999999  0.00000000  1
  C  C11  1  0.00000000  0.50000000  0.50000000  1
  C  C12  1  0.75000000  0.75000000  0.50000002  1
  C  C13  1  0.75000000  0.99999999  0.00000000  1
  C  C14  1  0.99999999  0.74999999  0.00000000  1
  C  C15  1  0.00000000  0.00000000  0.50000000  1
  Ti  Ti16  1  0.49999999  0.49999999  0.99999998  1
  Ti  Ti17  1  0.00000002  0.24999998  0.49999995  1
  Ti  Ti18  1  0.24999999  0.00000003  0.50000002  1
  Ti  Ti19  1  0.25000001  0.25000003  0.00000004  1
  Ti  Ti20  1  0.49999999  0.99999999  0.99999998  1
  Ti  Ti21  1  0.00000002  0.74999998  0.49999995  1
  Ti  Ti22  1  0.24999999  0.50000003  0.50000002  1
  Ti  Ti23  1  0.25000001  0.75000003  0.00000004  1
  Ti  Ti24  1  0.99999999  0.49999999  0.99999998  1
  Ti  Ti25  1  0.50000002  0.24999998  0.49999995  1
  Ti  Ti26  1  0.74999999  0.00000003  0.50000002  1
  Ti  Ti27  1  0.75000001  0.25000003  0.00000004  1
  Ti  Ti28  1  0.99999999  0.99999999  0.99999998  1
  Ti  Ti29  1  0.50000002  0.74999998  0.49999995  1
  Ti  Ti30  1  0.74999999  0.50000003  0.50000002  1
  Ti  Ti31  1  0.75000001  0.75000003  0.00000004  1
