# generated using pymatgen
data_ZrAlN2
_symmetry_space_group_name_H-M   'P 1'
_cell_length_a   8.77566579
_cell_length_b   8.77566579
_cell_length_c   4.42729131
_cell_angle_alpha   90.00000000
_cell_angle_beta   90.00000000
_cell_angle_gamma   90.25145157
_symmetry_Int_Tables_number   1
_chemical_formula_structural   ZrAlN2
_chemical_formula_sum   'Zr8 Al8 N16'
_cell_volume   340.95264766
_cell_formula_units_Z   8
loop_
 _symmetry_equiv_pos_site_id
 _symmetry_equiv_pos_as_xyz
  1  'x, y, z'
loop_
 _atom_site_type_symbol
 _atom_site_label
 _atom_site_symmetry_multiplicity
 _atom_site_fract_x
 _atom_site_fract_y
 _atom_site_fract_z
 _atom_site_occupancy
  Zr  Zr0  1  0.99681819  0.00196246  0.00000000  1
  Zr  Zr1  1  0.25197629  0.99802371  0.50000000  1
  Zr  Zr2  1  0.24803754  0.25318181  0.00000000  1
  Zr  Zr3  1  0.99814052  0.75414785  0.50000000  1
  Zr  Zr4  1  0.24926856  0.74725841  0.00000000  1
  Zr  Zr5  1  0.50274159  0.00073144  0.00000000  1
  Zr  Zr6  1  0.49585215  0.25185948  0.50000000  1
  Zr  Zr7  1  0.50273695  0.74726305  0.50000000  1
  Al  Al8  1  0.98941119  0.26058881  0.50000000  1
  Al  Al9  1  0.99126737  0.49312721  0.00000000  1
  Al  Al10  1  0.22202077  0.49552706  0.50000000  1
  Al  Al11  1  0.75447294  0.02797923  0.50000000  1
  Al  Al12  1  0.75687279  0.25873263  0.00000000  1
  Al  Al13  1  0.52642132  0.49684793  0.00000000  1
  Al  Al14  1  0.75582596  0.49417404  0.50000000  1
  Al  Al15  1  0.75315207  0.72357868  0.00000000  1
  N  N16  1  0.22856340  0.26919113  0.50000000  1
  N  N17  1  0.24661198  0.00338802  0.00000000  1
  N  N18  1  0.98442603  0.26557397  0.00000000  1
  N  N19  1  0.98080887  0.02143660  0.50000000  1
  N  N20  1  0.24944879  0.71917592  0.50000000  1
  N  N21  1  0.23032035  0.49901240  0.00000000  1
  N  N22  1  0.97877246  0.73269801  0.00000000  1
  N  N23  1  0.99211751  0.48876650  0.50000000  1
  N  N24  1  0.76123350  0.25788249  0.50000000  1
  N  N25  1  0.75098760  0.01967965  0.00000000  1
  N  N26  1  0.51730199  0.27122754  0.00000000  1
  N  N27  1  0.53082408  0.00055121  0.50000000  1
  N  N28  1  0.75336937  0.72930206  0.50000000  1
  N  N29  1  0.75568799  0.49431201  0.00000000  1
  N  N30  1  0.52381197  0.72618803  0.00000000  1
  N  N31  1  0.52069794  0.49663063  0.50000000  1
