# generated using pymatgen
data_Al7WN8
_symmetry_space_group_name_H-M   'P 1'
_cell_length_a   8.30712749
_cell_length_b   8.27266185
_cell_length_c   4.07755965
_cell_angle_alpha   90.00000000
_cell_angle_beta   90.00000000
_cell_angle_gamma   90.00000000
_symmetry_Int_Tables_number   1
_chemical_formula_structural   Al7WN8
_chemical_formula_sum   'Al14 W2 N16'
_cell_volume   280.21828534
_cell_formula_units_Z   2
loop_
 _symmetry_equiv_pos_site_id
 _symmetry_equiv_pos_as_xyz
  1  'x, y, z'
loop_
 _atom_site_type_symbol
 _atom_site_label
 _atom_site_symmetry_multiplicity
 _atom_site_fract_x
 _atom_site_fract_y
 _atom_site_fract_z
 _atom_site_occupancy
  Al  Al0  1  0.00210823  0.00145198  -0.00000000  1
  Al  Al1  1  0.00210823  0.24854802  0.50000000  1
  Al  Al2  1  0.25000000  0.00258196  0.50000000  1
  Al  Al3  1  0.25000000  0.24741804  -0.00000000  1
  Al  Al4  1  0.00700220  0.49535238  -0.00000000  1
  Al  Al5  1  0.00700220  0.75464762  0.50000000  1
  Al  Al6  1  0.25000000  0.49981360  0.50000000  1
  Al  Al7  1  0.25000000  0.75018640  -0.00000000  1
  Al  Al8  1  0.49789177  0.00145198  -0.00000000  1
  Al  Al9  1  0.49789177  0.24854802  0.50000000  1
  Al  Al10  1  0.75000000  0.00895972  0.50000000  1
  Al  Al11  1  0.75000000  0.24104028  -0.00000000  1
  Al  Al12  1  0.49299780  0.49535238  -0.00000000  1
  Al  Al13  1  0.49299780  0.75464762  0.50000000  1
  N  N14  1  0.25000000  0.25002881  0.50000000  1
  N  N15  1  0.25000000  -0.00002881  -0.00000000  1
  N  N16  1  0.00370107  0.24813194  0.00000000  1
  N  N17  1  0.00370107  0.00186806  0.50000000  1
  N  N18  1  0.25000000  0.75257744  0.50000000  1
  N  N19  1  0.25000000  0.49742256  0.00000000  1
  N  N20  1  0.01043195  0.74902932  0.00000000  1
  N  N21  1  0.01043195  0.50097068  0.50000000  1
  N  N22  1  0.75000000  0.24640226  0.50000000  1
  N  N23  1  0.75000000  0.00359774  0.00000000  1
  N  N24  1  0.49629893  0.24813194  0.00000000  1
  N  N25  1  0.49629893  0.00186806  0.50000000  1
  N  N26  1  0.75000000  0.78139549  0.50000000  1
  N  N27  1  0.75000000  0.46860451  0.00000000  1
  N  N28  1  0.48956805  0.74902932  0.00000000  1
  N  N29  1  0.48956805  0.50097068  0.50000000  1
  W  W30  1  0.75000000  0.52098586  0.50000000  1
  W  W31  1  0.75000000  0.72901414  0.00000000  1
