# generated using pymatgen
data_HfAl7N8
_symmetry_space_group_name_H-M   'P 1'
_cell_length_a   8.29085386
_cell_length_b   8.28530514
_cell_length_c   4.19492622
_cell_angle_alpha   90.00000000
_cell_angle_beta   90.00000000
_cell_angle_gamma   90.00000000
_symmetry_Int_Tables_number   1
_chemical_formula_structural   HfAl7N8
_chemical_formula_sum   'Hf2 Al14 N16'
_cell_volume   288.15893784
_cell_formula_units_Z   2
loop_
 _symmetry_equiv_pos_site_id
 _symmetry_equiv_pos_as_xyz
  1  'x, y, z'
loop_
 _atom_site_type_symbol
 _atom_site_label
 _atom_site_symmetry_multiplicity
 _atom_site_fract_x
 _atom_site_fract_y
 _atom_site_fract_z
 _atom_site_occupancy
  Hf  Hf0  1  0.00510751  0.00000000  0.00000000  1
  Hf  Hf1  1  0.24489249  0.00000000  0.50000000  1
  Al  Al2  1  0.99485197  0.26056207  0.50000000  1
  Al  Al3  1  0.25514803  0.26056207  0.00000000  1
  Al  Al4  1  0.99835405  0.50000000  0.00000000  1
  Al  Al5  1  0.99485197  0.73943793  0.50000000  1
  Al  Al6  1  0.25164595  0.50000000  0.50000000  1
  Al  Al7  1  0.25514803  0.73943793  0.00000000  1
  Al  Al8  1  0.50492306  0.00000000  0.00000000  1
  Al  Al9  1  0.50435386  0.25358617  0.50000000  1
  Al  Al10  1  0.74507694  0.00000000  0.50000000  1
  Al  Al11  1  0.74564614  0.25358617  -0.00000000  1
  Al  Al12  1  0.50199269  0.50000000  0.00000000  1
  Al  Al13  1  0.50435386  0.74641383  0.50000000  1
  Al  Al14  1  0.74800731  0.50000000  0.50000000  1
  Al  Al15  1  0.74564614  0.74641383  0.00000000  1
  N  N16  1  0.25028824  0.26464012  0.50000000  1
  N  N17  1  0.27055265  0.00000000  0.00000000  1
  N  N18  1  0.99971176  0.26464012  0.00000000  1
  N  N19  1  0.97944735  0.00000000  0.50000000  1
  N  N20  1  0.25028824  0.73535988  0.50000000  1
  N  N21  1  0.25271289  0.50000000  0.00000000  1
  N  N22  1  0.99971176  0.73535988  -0.00000000  1
  N  N23  1  0.99728711  0.50000000  0.50000000  1
  N  N24  1  0.74944415  0.25417165  0.50000000  1
  N  N25  1  0.73765341  0.00000000  0.00000000  1
  N  N26  1  0.50055585  0.25417165  0.00000000  1
  N  N27  1  0.51234659  0.00000000  0.50000000  1
  N  N28  1  0.74944415  0.74582835  0.50000000  1
  N  N29  1  0.74791646  0.50000000  0.00000000  1
  N  N30  1  0.50055585  0.74582835  0.00000000  1
  N  N31  1  0.50208354  0.50000000  0.50000000  1
