# generated using pymatgen
data_FeN
_symmetry_space_group_name_H-M   'P 1'
_cell_length_a   7.99897804
_cell_length_b   7.99897804
_cell_length_c   4.00062852
_cell_angle_alpha   90.00000000
_cell_angle_beta   90.00000000
_cell_angle_gamma   90.00000000
_symmetry_Int_Tables_number   1
_chemical_formula_structural   FeN
_chemical_formula_sum   'Fe16 N16'
_cell_volume   255.97481374
_cell_formula_units_Z   16
loop_
 _symmetry_equiv_pos_site_id
 _symmetry_equiv_pos_as_xyz
  1  'x, y, z'
loop_
 _atom_site_type_symbol
 _atom_site_label
 _atom_site_symmetry_multiplicity
 _atom_site_fract_x
 _atom_site_fract_y
 _atom_site_fract_z
 _atom_site_occupancy
  Fe  Fe0  1  0.00000000  0.00000000  0.00000000  1
  Fe  Fe1  1  0.00000000  0.25000000  0.50000000  1
  Fe  Fe2  1  0.25000000  0.00000000  0.50000000  1
  Fe  Fe3  1  0.25000000  0.25000000  0.00000000  1
  Fe  Fe4  1  0.00000000  0.50000000  0.00000000  1
  Fe  Fe5  1  0.00000000  0.75000000  0.50000000  1
  Fe  Fe6  1  0.25000000  0.50000000  0.50000000  1
  Fe  Fe7  1  0.25000000  0.75000000  0.00000000  1
  Fe  Fe8  1  0.50000000  0.00000000  0.00000000  1
  Fe  Fe9  1  0.50000000  0.25000000  0.50000000  1
  Fe  Fe10  1  0.75000000  0.00000000  0.50000000  1
  Fe  Fe11  1  0.75000000  0.25000000  0.00000000  1
  Fe  Fe12  1  0.50000000  0.50000000  0.00000000  1
  Fe  Fe13  1  0.50000000  0.75000000  0.50000000  1
  Fe  Fe14  1  0.75000000  0.50000000  0.50000000  1
  Fe  Fe15  1  0.75000000  0.75000000  0.00000000  1
  N  N16  1  0.25000000  0.25000000  0.50000000  1
  N  N17  1  0.25000000  0.00000000  0.00000000  1
  N  N18  1  0.00000000  0.25000000  0.00000000  1
  N  N19  1  0.00000000  0.00000000  0.50000000  1
  N  N20  1  0.25000000  0.75000000  0.50000000  1
  N  N21  1  0.25000000  0.50000000  0.00000000  1
  N  N22  1  0.00000000  0.75000000  0.00000000  1
  N  N23  1  0.00000000  0.50000000  0.50000000  1
  N  N24  1  0.75000000  0.25000000  0.50000000  1
  N  N25  1  0.75000000  0.00000000  0.00000000  1
  N  N26  1  0.50000000  0.25000000  0.00000000  1
  N  N27  1  0.50000000  0.00000000  0.50000000  1
  N  N28  1  0.75000000  0.75000000  0.50000000  1
  N  N29  1  0.75000000  0.50000000  0.00000000  1
  N  N30  1  0.50000000  0.75000000  0.00000000  1
  N  N31  1  0.50000000  0.50000000  0.50000000  1
