# generated using pymatgen
data_TaAl7N8
_symmetry_space_group_name_H-M   'P 1'
_cell_length_a   8.26483746
_cell_length_b   8.33555477
_cell_length_c   4.11702578
_cell_angle_alpha   90.00000000
_cell_angle_beta   90.00000000
_cell_angle_gamma   90.00000000
_symmetry_Int_Tables_number   1
_chemical_formula_structural   TaAl7N8
_chemical_formula_sum   'Ta2 Al14 N16'
_cell_volume   283.63016191
_cell_formula_units_Z   2
loop_
 _symmetry_equiv_pos_site_id
 _symmetry_equiv_pos_as_xyz
  1  'x, y, z'
loop_
 _atom_site_type_symbol
 _atom_site_label
 _atom_site_symmetry_multiplicity
 _atom_site_fract_x
 _atom_site_fract_y
 _atom_site_fract_z
 _atom_site_occupancy
  Al  Al0  1  0.99749736  0.99743392  0.00000000  1
  Al  Al1  1  0.99310902  0.25000000  0.50000000  1
  Al  Al2  1  0.24624482  0.99007314  0.50000000  1
  Al  Al3  1  0.99749736  0.50256608  0.00000000  1
  Al  Al4  1  0.99762047  0.75000000  0.50000000  1
  Al  Al5  1  0.24624482  0.50992686  0.50000000  1
  Al  Al6  1  0.24838604  0.75000000  -0.00000000  1
  Al  Al7  1  0.50375518  0.99007314  -0.00000000  1
  Al  Al8  1  0.75250264  0.99743392  0.50000000  1
  Al  Al9  1  0.75689098  0.25000000  -0.00000000  1
  Al  Al10  1  0.50375518  0.50992686  -0.00000000  1
  Al  Al11  1  0.50161396  0.75000000  0.50000000  1
  Al  Al12  1  0.75250264  0.50256608  0.50000000  1
  Al  Al13  1  0.75237953  0.75000000  -0.00000000  1
  Ta  Ta14  1  0.26231715  0.25000000  -0.00000000  1
  Ta  Ta15  1  0.48768285  0.25000000  0.50000000  1
  N  N16  1  0.22566148  0.25000000  0.50000000  1
  N  N17  1  0.25005721  0.98677762  -0.00000000  1
  N  N18  1  0.99180536  0.25000000  0.00000000  1
  N  N19  1  0.99956378  0.99657320  0.50000000  1
  N  N20  1  0.24720725  0.75000000  0.50000000  1
  N  N21  1  0.25005721  0.51322238  -0.00000000  1
  N  N22  1  0.99840782  0.75000000  -0.00000000  1
  N  N23  1  0.99956378  0.50342680  0.50000000  1
  N  N24  1  0.75819464  0.25000000  0.50000000  1
  N  N25  1  0.75043622  0.99657320  -0.00000000  1
  N  N26  1  0.52433852  0.25000000  0.00000000  1
  N  N27  1  0.49994279  0.98677762  0.50000000  1
  N  N28  1  0.75159218  0.75000000  0.50000000  1
  N  N29  1  0.75043622  0.50342680  0.00000000  1
  N  N30  1  0.50279275  0.75000000  -0.00000000  1
  N  N31  1  0.49994279  0.51322238  0.50000000  1
