# generated using pymatgen
data_AlFe3N4
_symmetry_space_group_name_H-M   'P 1'
_cell_length_a   8.37523842
_cell_length_b   8.04311383
_cell_length_c   3.93492176
_cell_angle_alpha   90.00000000
_cell_angle_beta   90.00000000
_cell_angle_gamma   89.84924175
_symmetry_Int_Tables_number   1
_chemical_formula_structural   AlFe3N4
_chemical_formula_sum   'Al4 Fe12 N16'
_cell_volume   265.06720115
_cell_formula_units_Z   4
loop_
 _symmetry_equiv_pos_site_id
 _symmetry_equiv_pos_as_xyz
  1  'x, y, z'
loop_
 _atom_site_type_symbol
 _atom_site_label
 _atom_site_symmetry_multiplicity
 _atom_site_fract_x
 _atom_site_fract_y
 _atom_site_fract_z
 _atom_site_occupancy
  Fe  Fe0  1  0.00427819  0.96871770  0.00000000  1
  Fe  Fe1  1  0.24613394  0.26062601  0.00000000  1
  Fe  Fe2  1  0.95825319  0.76448292  0.50000000  1
  Fe  Fe3  1  0.25032281  0.53006658  0.50000000  1
  Fe  Fe4  1  0.28919226  0.73856778  0.00000000  1
  Fe  Fe5  1  0.55455624  0.99471562  0.00000000  1
  Fe  Fe6  1  0.75619998  -0.00058504  0.50000000  1
  Fe  Fe7  1  0.72777415  0.25510092  0.00000000  1
  Fe  Fe8  1  0.53921084  0.51615450  0.00000000  1
  Fe  Fe9  1  0.48225420  0.72602416  0.50000000  1
  Fe  Fe10  1  0.73833157  0.52822737  0.50000000  1
  Fe  Fe11  1  0.75989142  0.74596347  0.00000000  1
  Al  Al12  1  0.99311432  0.25080131  0.50000000  1
  Al  Al13  1  0.25468681  0.99897825  0.50000000  1
  Al  Al14  1  0.00376326  0.49567488  0.00000000  1
  Al  Al15  1  0.48850772  0.24570359  0.50000000  1
  N  N16  1  0.24379385  0.24472312  0.50000000  1
  N  N17  1  0.23462747  0.98593081  0.00000000  1
  N  N18  1  0.00271543  0.24684696  0.00000000  1
  N  N19  1  0.99159757  0.99967997  0.50000000  1
  N  N20  1  0.25213082  0.75665820  0.50000000  1
  N  N21  1  0.24517541  0.49471223  0.00000000  1
  N  N22  1  0.99053279  0.73853631  0.00000000  1
  N  N23  1  0.99734682  0.50323912  0.50000000  1
  N  N24  1  0.74139554  0.24887702  0.50000000  1
  N  N25  1  0.76790913  0.01659998  0.00000000  1
  N  N26  1  0.49411928  0.24266049  0.00000000  1
  N  N27  1  0.49674499  0.99542338  0.50000000  1
  N  N28  1  0.73115180  0.76030231  0.50000000  1
  N  N29  1  0.76028150  0.49835984  0.00000000  1
  N  N30  1  0.50821823  0.75860675  0.00000000  1
  N  N31  1  0.49578849  0.48962350  0.50000000  1
