# generated using pymatgen
data_AlCo3N4
_symmetry_space_group_name_H-M   'P 1'
_cell_length_a   8.06899145
_cell_length_b   8.09754743
_cell_length_c   4.02960578
_cell_angle_alpha   90.00000000
_cell_angle_beta   90.00000000
_cell_angle_gamma   90.22950893
_symmetry_Int_Tables_number   1
_chemical_formula_structural   AlCo3N4
_chemical_formula_sum   'Al4 Co12 N16'
_cell_volume   263.28846502
_cell_formula_units_Z   4
loop_
 _symmetry_equiv_pos_site_id
 _symmetry_equiv_pos_as_xyz
  1  'x, y, z'
loop_
 _atom_site_type_symbol
 _atom_site_label
 _atom_site_symmetry_multiplicity
 _atom_site_fract_x
 _atom_site_fract_y
 _atom_site_fract_z
 _atom_site_occupancy
  Al  Al0  1  0.99986491  0.99479093  0.00000000  1
  Al  Al1  1  0.00511557  0.75105739  0.50000000  1
  Al  Al2  1  0.75013509  0.00520907  0.50000000  1
  Al  Al3  1  0.74488443  0.24894261  0.00000000  1
  Co  Co4  1  0.00516842  0.27966257  0.50000000  1
  Co  Co5  1  0.26218072  0.02693430  0.50000000  1
  Co  Co6  1  0.26999700  0.22782971  0.00000000  1
  Co  Co7  1  0.00313626  0.47926753  0.00000000  1
  Co  Co8  1  0.28564466  0.50378872  0.50000000  1
  Co  Co9  1  0.27578326  0.73982071  0.00000000  1
  Co  Co10  1  0.48781928  0.97306570  0.00000000  1
  Co  Co11  1  0.47421674  0.26017929  0.50000000  1
  Co  Co12  1  0.46435534  0.49621128  0.00000000  1
  Co  Co13  1  0.48000300  0.77217029  0.50000000  1
  Co  Co14  1  0.74686374  0.52073247  0.50000000  1
  Co  Co15  1  0.74483158  0.72033743  0.00000000  1
  N  N16  1  0.23709916  0.25634262  0.50000000  1
  N  N17  1  0.24815855  0.99193776  0.00000000  1
  N  N18  1  0.00849126  0.24186135  0.00000000  1
  N  N19  1  0.00384539  0.00053593  0.50000000  1
  N  N20  1  0.24711989  0.73597948  0.50000000  1
  N  N21  1  0.23909230  0.50887762  0.00000000  1
  N  N22  1  0.00202492  0.74562204  0.00000000  1
  N  N23  1  0.98208257  0.50970522  0.50000000  1
  N  N24  1  0.74797508  0.25437796  0.50000000  1
  N  N25  1  0.74615461  0.99946407  0.00000000  1
  N  N26  1  0.50288011  0.26402052  0.00000000  1
  N  N27  1  0.50184145  0.00806224  0.50000000  1
  N  N28  1  0.74150874  0.75813865  0.50000000  1
  N  N29  1  0.76791743  0.49029478  0.00000000  1
  N  N30  1  0.51290084  0.74365738  0.00000000  1
  N  N31  1  0.51090770  0.49112238  0.50000000  1
