# generated using pymatgen
data_Al7CrN8
_symmetry_space_group_name_H-M   'P 1'
_cell_length_a   8.22766794
_cell_length_b   8.16227672
_cell_length_c   4.01465871
_cell_angle_alpha   90.00000000
_cell_angle_beta   90.00000000
_cell_angle_gamma   90.00000000
_symmetry_Int_Tables_number   1
_chemical_formula_structural   Al7CrN8
_chemical_formula_sum   'Al14 Cr2 N16'
_cell_volume   269.61043764
_cell_formula_units_Z   2
loop_
 _symmetry_equiv_pos_site_id
 _symmetry_equiv_pos_as_xyz
  1  'x, y, z'
loop_
 _atom_site_type_symbol
 _atom_site_label
 _atom_site_symmetry_multiplicity
 _atom_site_fract_x
 _atom_site_fract_y
 _atom_site_fract_z
 _atom_site_occupancy
  Al  Al0  1  -0.00000000  0.00133823  0.00000000  1
  Al  Al1  1  -0.00000000  0.24866177  0.50000000  1
  Al  Al2  1  0.25249163  0.99843489  0.50000000  1
  Al  Al3  1  0.25249163  0.25156511  0.00000000  1
  Al  Al4  1  -0.00000000  0.50007277  0.00000000  1
  Al  Al5  1  -0.00000000  0.74992723  0.50000000  1
  Al  Al6  1  0.24761076  0.49914727  0.50000000  1
  Al  Al7  1  0.24761076  0.75085273  0.00000000  1
  Al  Al8  1  0.50000000  0.00123926  0.00000000  1
  Al  Al9  1  0.50000000  0.24876074  0.50000000  1
  Al  Al10  1  0.74750837  0.99843489  0.50000000  1
  Al  Al11  1  0.74750837  0.25156511  0.00000000  1
  Al  Al12  1  0.75238924  0.49914727  0.50000000  1
  Al  Al13  1  0.75238924  0.75085273  0.00000000  1
  N  N14  1  0.24972404  0.25044005  0.50000000  1
  N  N15  1  0.24972404  0.99955995  0.00000000  1
  N  N16  1  -0.00000000  0.25048266  0.00000000  1
  N  N17  1  -0.00000000  0.99951734  0.50000000  1
  N  N18  1  0.24639547  0.74769900  0.50000000  1
  N  N19  1  0.24639547  0.50230100  0.00000000  1
  N  N20  1  -0.00000000  0.75097649  0.00000000  1
  N  N21  1  -0.00000000  0.49902351  0.50000000  1
  N  N22  1  0.75027596  0.25044005  0.50000000  1
  N  N23  1  0.75027596  0.99955995  0.00000000  1
  N  N24  1  0.50000000  0.24904490  0.00000000  1
  N  N25  1  0.50000000  0.00095510  0.50000000  1
  N  N26  1  0.75360453  0.74769900  0.50000000  1
  N  N27  1  0.75360453  0.50230100  0.00000000  1
  N  N28  1  0.50000000  0.76005660  0.00000000  1
  N  N29  1  0.50000000  0.48994340  0.50000000  1
  Cr  Cr30  1  0.50000000  0.51780797  0.00000000  1
  Cr  Cr31  1  0.50000000  0.73219203  0.50000000  1
