# generated using pymatgen
data_Ta3AlN4
_symmetry_space_group_name_H-M   'P 1'
_cell_length_a   8.66886425
_cell_length_b   8.83684104
_cell_length_c   4.34013835
_cell_angle_alpha   90.00000000
_cell_angle_beta   90.00000000
_cell_angle_gamma   91.96279951
_symmetry_Int_Tables_number   1
_chemical_formula_structural   Ta3AlN4
_chemical_formula_sum   'Ta12 Al4 N16'
_cell_volume   332.28285458
_cell_formula_units_Z   4
loop_
 _symmetry_equiv_pos_site_id
 _symmetry_equiv_pos_as_xyz
  1  'x, y, z'
loop_
 _atom_site_type_symbol
 _atom_site_label
 _atom_site_symmetry_multiplicity
 _atom_site_fract_x
 _atom_site_fract_y
 _atom_site_fract_z
 _atom_site_occupancy
  Ta  Ta0  1  0.01613185  0.00387733  0.00000000  1
  Ta  Ta1  1  0.24421547  0.00826926  0.50000000  1
  Ta  Ta2  1  0.25481018  0.22949146  0.00000000  1
  Ta  Ta3  1  0.00438408  0.50339549  0.00000000  1
  Ta  Ta4  1  0.24957997  0.51886345  0.50000000  1
  Ta  Ta5  1  0.24637968  0.73402698  0.00000000  1
  Ta  Ta6  1  0.51298075  0.00966309  0.00000000  1
  Ta  Ta7  1  0.50374312  0.24234792  0.50000000  1
  Ta  Ta8  1  0.73827132  0.01144087  0.50000000  1
  Ta  Ta9  1  0.74459352  0.25233248  0.00000000  1
  Ta  Ta10  1  0.47882918  0.74686141  0.50000000  1
  Ta  Ta11  1  0.75322549  0.48733113  0.50000000  1
  Al  Al12  1  0.01155616  0.25282250  0.50000000  1
  Al  Al13  1  0.98305323  0.76340877  0.50000000  1
  Al  Al14  1  0.50047827  0.50552862  0.00000000  1
  Al  Al15  1  0.75042559  0.74628542  0.00000000  1
  N  N16  1  0.23884847  0.26288813  0.50000000  1
  N  N17  1  0.26532014  0.97995227  0.00000000  1
  N  N18  1  0.00405035  0.25089496  0.00000000  1
  N  N19  1  0.99190416  0.00204166  0.50000000  1
  N  N20  1  0.20837172  0.76294504  0.50000000  1
  N  N21  1  0.27057590  0.48456371  0.00000000  1
  N  N22  1  0.98308922  0.75221988  0.00000000  1
  N  N23  1  0.00163492  0.49130739  0.50000000  1
  N  N24  1  0.78987190  0.24594853  0.50000000  1
  N  N25  1  0.76088220  0.97567629  0.00000000  1
  N  N26  1  0.49771550  0.28237801  0.00000000  1
  N  N27  1  0.49074664  0.99105864  0.50000000  1
  N  N28  1  0.75577640  0.74830001  0.50000000  1
  N  N29  1  0.73147518  0.51412404  0.00000000  1
  N  N30  1  0.51610166  0.74145918  0.00000000  1
  N  N31  1  0.50097776  0.49829610  0.50000000  1
