# generated using pymatgen
data_ZrAl7N8
_symmetry_space_group_name_H-M   'P 1'
_cell_length_a   8.28031719
_cell_length_b   8.32758251
_cell_length_c   4.22143872
_cell_angle_alpha   90.00000000
_cell_angle_beta   90.00000000
_cell_angle_gamma   90.00000000
_symmetry_Int_Tables_number   1
_chemical_formula_structural   ZrAl7N8
_chemical_formula_sum   'Zr2 Al14 N16'
_cell_volume   291.08941082
_cell_formula_units_Z   2
loop_
 _symmetry_equiv_pos_site_id
 _symmetry_equiv_pos_as_xyz
  1  'x, y, z'
loop_
 _atom_site_type_symbol
 _atom_site_label
 _atom_site_symmetry_multiplicity
 _atom_site_fract_x
 _atom_site_fract_y
 _atom_site_fract_z
 _atom_site_occupancy
  Al  Al0  1  0.00321529  0.00502171  0.00000000  1
  Al  Al1  1  0.99678471  0.24497829  0.50000000  1
  Al  Al2  1  0.25000000  0.00127196  0.50000000  1
  Al  Al3  1  0.25000000  0.24405490  -0.00000000  1
  Al  Al4  1  0.99830272  0.49444772  0.00000000  1
  Al  Al5  1  0.00169728  0.75555228  0.50000000  1
  Al  Al6  1  0.25000000  0.75855585  -0.00000000  1
  Al  Al7  1  0.49678471  0.00502171  -0.00000000  1
  Al  Al8  1  0.50321529  0.24497829  0.50000000  1
  Al  Al9  1  0.75000000  0.00594510  0.50000000  1
  Al  Al10  1  0.75000000  0.24872804  -0.00000000  1
  Al  Al11  1  0.50169728  0.49444772  0.00000000  1
  Al  Al12  1  0.49830272  0.75555228  0.50000000  1
  Al  Al13  1  0.75000000  0.49144415  0.50000000  1
  N  N14  1  0.25000000  0.23421794  0.50000000  1
  N  N15  1  0.25000000  0.00334088  -0.00000000  1
  N  N16  1  0.00286669  0.24907678  0.00000000  1
  N  N17  1  0.99713331  0.00092322  0.50000000  1
  N  N18  1  0.25000000  0.76768959  0.50000000  1
  N  N19  1  0.25000000  0.49605165  -0.00000000  1
  N  N20  1  0.01643829  0.75070460  -0.00000000  1
  N  N21  1  0.98356171  0.49929540  0.50000000  1
  N  N22  1  0.75000000  0.24665912  0.50000000  1
  N  N23  1  0.75000000  0.01578206  -0.00000000  1
  N  N24  1  0.49713331  0.24907678  0.00000000  1
  N  N25  1  0.50286669  0.00092322  0.50000000  1
  N  N26  1  0.75000000  0.75394835  0.50000000  1
  N  N27  1  0.75000000  0.48231041  -0.00000000  1
  N  N28  1  0.48356171  0.75070460  0.00000000  1
  N  N29  1  0.51643829  0.49929540  0.50000000  1
  Zr  Zr30  1  0.25000000  0.50094010  0.50000000  1
  Zr  Zr31  1  0.75000000  0.74905990  -0.00000000  1
