# generated using pymatgen
data_Al3ReN4
_symmetry_space_group_name_H-M   'P 1'
_cell_length_a   8.38971408
_cell_length_b   8.45838880
_cell_length_c   4.08402801
_cell_angle_alpha   90.00000000
_cell_angle_beta   90.00000000
_cell_angle_gamma   90.00000000
_symmetry_Int_Tables_number   1
_chemical_formula_structural   Al3ReN4
_chemical_formula_sum   'Al12 Re4 N16'
_cell_volume   289.81677307
_cell_formula_units_Z   4
loop_
 _symmetry_equiv_pos_site_id
 _symmetry_equiv_pos_as_xyz
  1  'x, y, z'
loop_
 _atom_site_type_symbol
 _atom_site_label
 _atom_site_symmetry_multiplicity
 _atom_site_fract_x
 _atom_site_fract_y
 _atom_site_fract_z
 _atom_site_occupancy
  Al  Al0  1  0.00232370  0.00465447  0.00000000  1
  Al  Al1  1  0.00562385  0.25000000  0.50000000  1
  Al  Al2  1  0.25098535  0.00648604  0.50000000  1
  Al  Al3  1  0.24836044  0.25000000  0.00000000  1
  Al  Al4  1  0.00232370  0.49534553  0.00000000  1
  Al  Al5  1  0.00523611  0.75000000  0.50000000  1
  Al  Al6  1  0.25098535  0.49351396  0.50000000  1
  Al  Al7  1  0.49607804  0.01131400  0.00000000  1
  Al  Al8  1  0.49740294  0.25000000  0.50000000  1
  Al  Al9  1  0.75208590  0.00185095  0.50000000  1
  Al  Al10  1  0.49607804  0.48868600  0.00000000  1
  Al  Al11  1  0.75208590  0.49814905  0.50000000  1
  N  N12  1  0.24985133  0.25000000  0.50000000  1
  N  N13  1  0.25033673  0.01088359  0.00000000  1
  N  N14  1  0.01196230  0.25000000  0.00000000  1
  N  N15  1  0.00121551  0.00288391  0.50000000  1
  N  N16  1  0.24595676  0.75000000  0.50000000  1
  N  N17  1  0.25033673  0.48911641  0.00000000  1
  N  N18  1  0.98567383  0.75000000  0.00000000  1
  N  N19  1  0.00121551  0.49711609  0.50000000  1
  N  N20  1  0.75329177  0.25000000  0.50000000  1
  N  N21  1  0.74654146  0.99904233  0.00000000  1
  N  N22  1  0.48785888  0.25000000  0.00000000  1
  N  N23  1  0.50109500  0.01262373  0.50000000  1
  N  N24  1  0.77658640  0.75000000  0.50000000  1
  N  N25  1  0.74654146  0.50095767  0.00000000  1
  N  N26  1  0.48377064  0.75000000  0.00000000  1
  N  N27  1  0.50109500  0.48737627  0.50000000  1
  Re  Re28  1  0.24005718  0.75000000  0.00000000  1
  Re  Re29  1  0.75056725  0.25000000  0.00000000  1
  Re  Re30  1  0.51839226  0.75000000  0.50000000  1
  Re  Re31  1  0.73808473  0.75000000  0.00000000  1
