# generated using pymatgen
data_AlRe3N4
_symmetry_space_group_name_H-M   'P 1'
_cell_length_a   9.95011925
_cell_length_b   8.33143054
_cell_length_c   4.00575494
_cell_angle_alpha   90.00000000
_cell_angle_beta   90.00000000
_cell_angle_gamma   90.00000000
_symmetry_Int_Tables_number   1
_chemical_formula_structural   AlRe3N4
_chemical_formula_sum   'Al4 Re12 N16'
_cell_volume   332.07198679
_cell_formula_units_Z   4
loop_
 _symmetry_equiv_pos_site_id
 _symmetry_equiv_pos_as_xyz
  1  'x, y, z'
loop_
 _atom_site_type_symbol
 _atom_site_label
 _atom_site_symmetry_multiplicity
 _atom_site_fract_x
 _atom_site_fract_y
 _atom_site_fract_z
 _atom_site_occupancy
  Re  Re0  1  0.03474788  0.98181418  0.00000000  1
  Re  Re1  1  0.25000000  0.00000000  0.50000000  1
  Re  Re2  1  0.22147201  0.25000000  0.00000000  1
  Re  Re3  1  0.03474788  0.51818582  0.00000000  1
  Re  Re4  1  0.08121742  0.75000000  0.50000000  1
  Re  Re5  1  0.25000000  0.50000000  0.50000000  1
  Re  Re6  1  0.27852799  0.75000000  0.00000000  1
  Re  Re7  1  0.46525212  0.01818582  0.00000000  1
  Re  Re8  1  0.41878258  0.25000000  0.50000000  1
  Re  Re9  1  0.74235160  0.25000000  0.00000000  1
  Re  Re10  1  0.46525212  0.48181418  0.00000000  1
  Re  Re11  1  0.75764840  0.75000000  0.00000000  1
  Al  Al12  1  0.96253221  0.25000000  0.50000000  1
  Al  Al13  1  0.75000000  0.00000000  0.50000000  1
  Al  Al14  1  0.53746779  0.75000000  0.50000000  1
  Al  Al15  1  0.75000000  0.50000000  0.50000000  1
  N  N16  1  0.20965850  0.25000000  0.50000000  1
  N  N17  1  0.25000000  0.00000000  0.00000000  1
  N  N18  1  0.99518812  0.25000000  0.00000000  1
  N  N19  1  0.95268042  0.01425172  0.50000000  1
  N  N20  1  0.29034150  0.75000000  0.50000000  1
  N  N21  1  0.25000000  0.50000000  0.00000000  1
  N  N22  1  0.95526939  0.75000000  0.00000000  1
  N  N23  1  0.95268042  0.48574828  0.50000000  1
  N  N24  1  0.76156827  0.25000000  0.50000000  1
  N  N25  1  0.75000000  -0.00000000  0.00000000  1
  N  N26  1  0.54473061  0.25000000  0.00000000  1
  N  N27  1  0.54731958  0.98574828  0.50000000  1
  N  N28  1  0.73843173  0.75000000  0.50000000  1
  N  N29  1  0.75000000  0.50000000  0.00000000  1
  N  N30  1  0.50481188  0.75000000  0.00000000  1
  N  N31  1  0.54731958  0.51425172  0.50000000  1
