# generated using pymatgen
data_HfAl3N4
_symmetry_space_group_name_H-M   'P 1'
_cell_length_a   8.38969315
_cell_length_b   8.49450465
_cell_length_c   4.27843424
_cell_angle_alpha   90.00000000
_cell_angle_beta   90.00000000
_cell_angle_gamma   89.99927673
_symmetry_Int_Tables_number   1
_chemical_formula_structural   HfAl3N4
_chemical_formula_sum   'Hf4 Al12 N16'
_cell_volume   304.90812449
_cell_formula_units_Z   4
loop_
 _symmetry_equiv_pos_site_id
 _symmetry_equiv_pos_as_xyz
  1  'x, y, z'
loop_
 _atom_site_type_symbol
 _atom_site_label
 _atom_site_symmetry_multiplicity
 _atom_site_fract_x
 _atom_site_fract_y
 _atom_site_fract_z
 _atom_site_occupancy
  Hf  Hf0  1  0.99987244  0.99726589  0.00000000  1
  Hf  Hf1  1  0.00389987  0.50277263  0.00000000  1
  Hf  Hf2  1  0.24231318  0.75200369  0.00000000  1
  Hf  Hf3  1  0.75469516  0.99979619  0.50000000  1
  Al  Al4  1  0.00405151  0.25472332  0.50000000  1
  Al  Al5  1  0.25605895  0.01232910  0.50000000  1
  Al  Al6  1  0.25957277  0.24987767  0.00000000  1
  Al  Al7  1  0.99736945  0.74510699  0.50000000  1
  Al  Al8  1  0.26035739  0.49366847  0.50000000  1
  Al  Al9  1  0.49855669  0.00427414  0.00000000  1
  Al  Al10  1  0.49923035  0.25254077  0.50000000  1
  Al  Al11  1  0.74419515  0.25567195  0.00000000  1
  Al  Al12  1  0.50065646  0.49647183  0.00000000  1
  Al  Al13  1  0.49998493  0.74754754  0.50000000  1
  Al  Al14  1  0.73933902  0.49766124  0.50000000  1
  Al  Al15  1  0.74211803  0.73892077  0.00000000  1
  N  N16  1  0.25176087  0.25401177  0.50000000  1
  N  N17  1  0.26831735  0.01736929  0.00000000  1
  N  N18  1  0.99622326  0.25147367  0.00000000  1
  N  N19  1  0.02021501  0.99982635  0.50000000  1
  N  N20  1  0.25007030  0.74154032  0.50000000  1
  N  N21  1  0.26697582  0.48379161  0.00000000  1
  N  N22  1  0.97458939  0.74911734  0.00000000  1
  N  N23  1  0.00300977  0.49878708  0.50000000  1
  N  N24  1  0.74980466  0.26222255  0.50000000  1
  N  N25  1  0.73033130  0.00938617  0.00000000  1
  N  N26  1  0.50360270  0.25260797  0.00000000  1
  N  N27  1  0.48870395  0.00027773  0.50000000  1
  N  N28  1  0.74805214  0.73609940  0.50000000  1
  N  N29  1  0.73571622  0.49563672  0.00000000  1
  N  N30  1  0.51128814  0.74799217  0.00000000  1
  N  N31  1  0.49906775  0.49922765  0.50000000  1
