# generated using pymatgen
data_TaAl3N4
_symmetry_space_group_name_H-M   'P 1'
_cell_length_a   8.36246974
_cell_length_b   8.44077484
_cell_length_c   4.19801148
_cell_angle_alpha   90.00000000
_cell_angle_beta   90.00000000
_cell_angle_gamma   90.00000000
_symmetry_Int_Tables_number   1
_chemical_formula_structural   TaAl3N4
_chemical_formula_sum   'Ta4 Al12 N16'
_cell_volume   296.31968044
_cell_formula_units_Z   4
loop_
 _symmetry_equiv_pos_site_id
 _symmetry_equiv_pos_as_xyz
  1  'x, y, z'
loop_
 _atom_site_type_symbol
 _atom_site_label
 _atom_site_symmetry_multiplicity
 _atom_site_fract_x
 _atom_site_fract_y
 _atom_site_fract_z
 _atom_site_occupancy
  Ta  Ta0  1  0.01140351  0.99287458  0.00000000  1
  Ta  Ta1  1  0.25000000  0.99544312  0.50000000  1
  Ta  Ta2  1  0.25000000  0.77185993  0.00000000  1
  Ta  Ta3  1  0.48859649  0.99287458  0.00000000  1
  Al  Al4  1  0.99515999  0.25838026  0.50000000  1
  Al  Al5  1  0.25000000  0.27210450  0.00000000  1
  Al  Al6  1  0.99586140  0.49645228  0.00000000  1
  Al  Al7  1  0.99160191  0.73410697  0.50000000  1
  Al  Al8  1  0.25000000  0.49652635  0.50000000  1
  Al  Al9  1  0.50484001  0.25838026  0.50000000  1
  Al  Al10  1  0.75000000  0.00142955  0.50000000  1
  Al  Al11  1  0.75000000  0.25292190  0.00000000  1
  Al  Al12  1  0.50413860  0.49645228  0.00000000  1
  Al  Al13  1  0.50839809  0.73410697  0.50000000  1
  Al  Al14  1  0.75000000  0.49511763  0.50000000  1
  Al  Al15  1  0.75000000  0.74142979  0.00000000  1
  N  N16  1  0.25000000  0.26112966  0.50000000  1
  N  N17  1  0.25000000  0.04809083  0.00000000  1
  N  N18  1  0.99570901  0.26054276  0.00000000  1
  N  N19  1  0.98228342  0.00298235  0.50000000  1
  N  N20  1  0.25000000  0.72525363  0.50000000  1
  N  N21  1  0.25000000  0.49976722  0.00000000  1
  N  N22  1  0.98525113  0.73093248  0.00000000  1
  N  N23  1  0.99631582  0.49667227  0.50000000  1
  N  N24  1  0.75000000  0.25214911  0.50000000  1
  N  N25  1  0.75000000  0.00013587  0.00000000  1
  N  N26  1  0.50429099  0.26054276  0.00000000  1
  N  N27  1  0.51771658  0.00298235  0.50000000  1
  N  N28  1  0.75000000  0.74508010  0.50000000  1
  N  N29  1  0.75000000  0.49567287  0.00000000  1
  N  N30  1  0.51474887  0.73093248  0.00000000  1
  N  N31  1  0.50368418  0.49667227  0.50000000  1
