# generated using pymatgen
data_Al3WN4
_symmetry_space_group_name_H-M   'P 1'
_cell_length_a   8.34020251
_cell_length_b   8.42222712
_cell_length_c   4.13766635
_cell_angle_alpha   90.00000000
_cell_angle_beta   90.00000000
_cell_angle_gamma   89.94964916
_symmetry_Int_Tables_number   1
_chemical_formula_structural   Al3WN4
_chemical_formula_sum   'Al12 W4 N16'
_cell_volume   290.64231531
_cell_formula_units_Z   4
loop_
 _symmetry_equiv_pos_site_id
 _symmetry_equiv_pos_as_xyz
  1  'x, y, z'
loop_
 _atom_site_type_symbol
 _atom_site_label
 _atom_site_symmetry_multiplicity
 _atom_site_fract_x
 _atom_site_fract_y
 _atom_site_fract_z
 _atom_site_occupancy
  Al  Al0  1  0.00888585  0.99041733  0.00000000  1
  Al  Al1  1  0.25572590  0.99079410  0.50000000  1
  Al  Al2  1  0.98988363  0.51178575  0.00000000  1
  Al  Al3  1  0.00134900  0.74970972  0.50000000  1
  Al  Al4  1  0.24817376  0.50447034  0.50000000  1
  Al  Al5  1  0.24440343  0.74427046  0.00000000  1
  Al  Al6  1  0.50768369  0.25216973  0.50000000  1
  Al  Al7  1  0.76040806  0.01054645  0.50000000  1
  Al  Al8  1  0.74548881  0.25850346  0.00000000  1
  Al  Al9  1  0.49657350  0.49352441  0.00000000  1
  Al  Al10  1  0.49403187  0.74063124  0.50000000  1
  Al  Al11  1  0.74726461  0.50076998  0.50000000  1
  W  W12  1  0.02075298  0.25313842  0.50000000  1
  W  W13  1  0.22751327  0.24488613  0.00000000  1
  W  W14  1  0.51992177  0.98008477  0.00000000  1
  W  W15  1  0.72993522  0.77018529  0.00000000  1
  N  N16  1  0.28071791  0.23388889  0.50000000  1
  N  N17  1  0.24913688  0.98456714  0.00000000  1
  N  N18  1  0.97253119  0.27828714  0.00000000  1
  N  N19  1  0.00594886  0.98890069  0.50000000  1
  N  N20  1  0.25000041  0.74713042  0.50000000  1
  N  N21  1  0.24334800  0.50318580  0.00000000  1
  N  N22  1  0.00200403  0.75014160  0.00000000  1
  N  N23  1  0.99766748  0.51275437  0.50000000  1
  N  N24  1  0.74608885  0.25521740  0.50000000  1
  N  N25  1  0.77569479  0.02128229  0.00000000  1
  N  N26  1  0.50585850  0.25338371  0.00000000  1
  N  N27  1  0.50349315  0.99493209  0.50000000  1
  N  N28  1  0.75082439  0.74815967  0.50000000  1
  N  N29  1  0.74258204  0.50367933  0.00000000  1
  N  N30  1  0.47910097  0.72919556  0.00000000  1
  N  N31  1  0.49700718  0.49940632  0.50000000  1
