# generated using pymatgen
data_TiAl3N4
_symmetry_space_group_name_H-M   'P 1'
_cell_length_a   8.25634621
_cell_length_b   8.28554584
_cell_length_c   4.12387476
_cell_angle_alpha   90.00000000
_cell_angle_beta   90.00000000
_cell_angle_gamma   89.97354935
_symmetry_Int_Tables_number   1
_chemical_formula_structural   TiAl3N4
_chemical_formula_sum   'Ti4 Al12 N16'
_cell_volume   282.10737609
_cell_formula_units_Z   4
loop_
 _symmetry_equiv_pos_site_id
 _symmetry_equiv_pos_as_xyz
  1  'x, y, z'
loop_
 _atom_site_type_symbol
 _atom_site_label
 _atom_site_symmetry_multiplicity
 _atom_site_fract_x
 _atom_site_fract_y
 _atom_site_fract_z
 _atom_site_occupancy
  Ti  Ti0  1  0.00754925  0.00692485  0.00000000  1
  Ti  Ti1  1  0.25095453  0.23682151  0.00000000  1
  Ti  Ti2  1  0.49397397  0.99932755  0.00000000  1
  Ti  Ti3  1  0.49976035  0.75894060  0.50000000  1
  Al  Al4  1  0.99650192  0.25632378  0.50000000  1
  Al  Al5  1  0.24780635  0.99686280  0.50000000  1
  Al  Al6  1  0.99952937  0.50024017  0.00000000  1
  Al  Al7  1  0.99903519  0.74582935  0.50000000  1
  Al  Al8  1  0.25090570  0.49920796  0.50000000  1
  Al  Al9  1  0.24573200  0.74360962  0.00000000  1
  Al  Al10  1  0.50387199  0.25366192  0.50000000  1
  Al  Al11  1  0.75289001  0.00279538  0.50000000  1
  Al  Al12  1  0.74875409  0.25173760  0.00000000  1
  Al  Al13  1  0.50034284  0.49899863  0.00000000  1
  Al  Al14  1  0.74886198  0.50034960  0.50000000  1
  Al  Al15  1  0.75374120  0.74967544  0.00000000  1
  N  N16  1  0.24767424  0.24620378  0.50000000  1
  N  N17  1  0.24981853  0.98260630  0.00000000  1
  N  N18  1  0.99055476  0.26030343  0.00000000  1
  N  N19  1  0.00145661  0.00290128  0.50000000  1
  N  N20  1  0.24320308  0.75002544  0.50000000  1
  N  N21  1  0.24996200  0.50514834  0.00000000  1
  N  N22  1  0.99819354  0.74203402  0.00000000  1
  N  N23  1  0.00055007  0.49930262  0.50000000  1
  N  N24  1  0.75157670  0.25013232  0.50000000  1
  N  N25  1  0.75118499  0.99783970  0.00000000  1
  N  N26  1  0.50888771  0.26028867  0.00000000  1
  N  N27  1  0.49863869  0.01239520  0.50000000  1
  N  N28  1  0.75608221  0.75222501  0.50000000  1
  N  N29  1  0.75017436  0.50305245  0.00000000  1
  N  N30  1  0.50256743  0.73977764  0.00000000  1
  N  N31  1  0.49926435  0.49445701  0.50000000  1
