# generated using pymatgen
data_Al23Cr2N25
_symmetry_space_group_name_H-M   'P 1'
_cell_length_a   14.40195165
_cell_length_b   14.40001005
_cell_length_c   2.85988747
_cell_angle_alpha   60.23076806
_cell_angle_beta   60.23518619
_cell_angle_gamma   60.07085460
_symmetry_Int_Tables_number   1
_chemical_formula_structural   Al23Cr2N25
_chemical_formula_sum   'Al23 Cr2 N25'
_cell_volume   421.08729267
_cell_formula_units_Z   1
loop_
 _symmetry_equiv_pos_site_id
 _symmetry_equiv_pos_as_xyz
  1  'x, y, z'
loop_
 _atom_site_type_symbol
 _atom_site_label
 _atom_site_symmetry_multiplicity
 _atom_site_fract_x
 _atom_site_fract_y
 _atom_site_fract_z
 _atom_site_occupancy
  Al  Al0  1  0.00076474  0.00010121  0.99783513  1
  Al  Al1  1  0.00027106  0.20004418  0.99921190  1
  Al  Al2  1  0.99999919  0.39980895  0.00047966  1
  Al  Al3  1  0.00145501  0.59864560  0.99974847  1
  Al  Al4  1  0.99955420  0.79945656  0.00247312  1
  Al  Al5  1  0.20019756  0.00003539  0.99941763  1
  Al  Al6  1  0.19980244  0.19996461  0.00058237  1
  Al  Al7  1  0.20044181  0.39953399  0.00006049  1
  Al  Al8  1  0.20000000  0.60000000  -0.00000000  1
  Al  Al9  1  0.19955819  0.80046601  0.99993951  1
  Al  Al10  1  0.39972894  0.99995582  0.00078810  1
  Al  Al11  1  0.39923526  0.19989879  0.00216487  1
  Al  Al12  1  0.40044580  0.40054344  0.99752688  1
  Al  Al13  1  0.39854499  0.60135440  0.00025153  1
  Al  Al14  1  0.40000081  0.80019105  0.99952034  1
  Al  Al15  1  0.59858445  0.00138404  0.00007878  1
  Al  Al16  1  0.60046689  0.20072835  0.99701188  1
  Al  Al17  1  0.59904970  0.59924079  0.00427378  1
  Al  Al18  1  0.60038318  0.80050344  0.99778346  1
  Al  Al19  1  0.79953311  0.99927165  0.00298812  1
  Al  Al20  1  0.80141555  0.19861596  0.99992122  1
  Al  Al21  1  0.79961682  0.39949656  0.00221654  1
  Al  Al22  1  0.80095030  0.60075921  0.99572622  1
  N  N23  1  0.10019268  0.10004389  0.49940857  1
  N  N24  1  0.09998461  0.29985941  0.50038995  1
  N  N25  1  0.10088089  0.49916161  0.49989372  1
  N  N26  1  0.10012168  0.69989387  0.49996113  1
  N  N27  1  0.10019570  0.90003298  0.49942829  1
  N  N28  1  0.29980732  0.09995611  0.50059143  1
  N  N29  1  0.29980430  0.29996702  0.50057171  1
  N  N30  1  0.29987832  0.50010613  0.50003887  1
  N  N31  1  0.29911911  0.70083839  0.50010628  1
  N  N32  1  0.30001539  0.90014059  0.49961005  1
  N  N33  1  0.49913587  0.10067587  0.50047064  1
  N  N34  1  0.49886234  0.29904757  0.50522521  1
  N  N35  1  0.49589322  0.50394682  0.50039991  1
  N  N36  1  0.49967112  0.70021610  0.50028192  1
  N  N37  1  0.49969422  0.90009558  0.50052549  1
  N  N38  1  0.70000000  0.10000000  0.50000000  1
  N  N39  1  0.70407541  0.29592490  0.49999924  1
  N  N40  1  0.70113138  0.50095911  0.49477376  1
  N  N41  1  0.69886862  0.69904089  0.50522624  1
  N  N42  1  0.69592459  0.90407510  0.50000076  1
  N  N43  1  0.90086413  0.09932413  0.49952936  1
  N  N44  1  0.90030578  0.29990442  0.49947451  1
  N  N45  1  0.90032888  0.49978390  0.49971808  1
  N  N46  1  0.90410678  0.69605318  0.49960009  1
  N  N47  1  0.90113766  0.90095243  0.49477479  1
  Cr  Cr48  1  0.59998430  0.40018253  0.99958293  1
  Cr  Cr49  1  0.80001570  0.79981747  0.00041707  1
