# generated using pymatgen
data_Mn2Al23N25
_symmetry_space_group_name_H-M   'P 1'
_cell_length_a   14.38664940
_cell_length_b   14.38552436
_cell_length_c   2.85930033
_cell_angle_alpha   60.20449882
_cell_angle_beta   60.20706432
_cell_angle_gamma   60.02506440
_symmetry_Int_Tables_number   1
_chemical_formula_structural   Mn2Al23N25
_chemical_formula_sum   'Mn2 Al23 N25'
_cell_volume   419.81377442
_cell_formula_units_Z   1
loop_
 _symmetry_equiv_pos_site_id
 _symmetry_equiv_pos_as_xyz
  1  'x, y, z'
loop_
 _atom_site_type_symbol
 _atom_site_label
 _atom_site_symmetry_multiplicity
 _atom_site_fract_x
 _atom_site_fract_y
 _atom_site_fract_z
 _atom_site_occupancy
  Al  Al0  1  0.99975080  0.00001276  0.00059110  1
  Al  Al1  1  0.00057189  0.19959314  0.99958741  1
  Al  Al2  1  0.00000000  0.40000000  0.00000000  1
  Al  Al3  1  0.99942811  0.60040686  0.00041259  1
  Al  Al4  1  0.00024920  0.79998724  0.99940890  1
  Al  Al5  1  0.19931995  0.99978984  0.00222554  1
  Al  Al6  1  0.20134188  0.20019569  0.99615609  1
  Al  Al7  1  0.19868564  0.40116310  0.00037817  1
  Al  Al8  1  0.20038615  0.59996246  0.99912846  1
  Al  Al9  1  0.19998835  0.79971096  0.00075175  1
  Al  Al10  1  0.40035386  0.00137656  0.99567396  1
  Al  Al11  1  0.39933413  0.39831365  0.00588057  1
  Al  Al12  1  0.40135732  0.60005120  0.99647873  1
  Al  Al13  1  0.39882560  0.80137558  0.99949707  1
  Al  Al14  1  0.60117440  0.99862442  0.00050293  1
  Al  Al15  1  0.59864268  0.19994880  0.00352127  1
  Al  Al16  1  0.60066587  0.40168635  0.99411943  1
  Al  Al17  1  0.59964614  0.79862344  0.00432604  1
  Al  Al18  1  0.80001165  0.00028904  0.99924825  1
  Al  Al19  1  0.79961385  0.20003754  0.00087154  1
  Al  Al20  1  0.80131436  0.39883690  0.99962183  1
  Al  Al21  1  0.79865812  0.59980431  0.00384391  1
  Al  Al22  1  0.80068005  0.80021016  0.99777446  1
  N  N23  1  0.09991081  0.09990317  0.50046508  1
  N  N24  1  0.10013978  0.30012559  0.49933654  1
  N  N25  1  0.09935127  0.50048471  0.50041005  1
  N  N26  1  0.10014010  0.69999517  0.49966186  1
  N  N27  1  0.09987355  0.89989568  0.50057691  1
  N  N28  1  0.29924086  0.09923584  0.50380824  1
  N  N29  1  0.29727703  0.30247271  0.50062564  1
  N  N30  1  0.29976568  0.49977670  0.50114406  1
  N  N31  1  0.30008447  0.69997806  0.49984368  1
  N  N32  1  0.29941373  0.90037722  0.50052263  1
  N  N33  1  0.50269433  0.09728668  0.50004746  1
  N  N34  1  0.50066676  0.30069895  0.49658573  1
  N  N35  1  0.49933324  0.49930105  0.50341427  1
  N  N36  1  0.49730567  0.70271332  0.49995254  1
  N  N37  1  0.50000000  0.90000000  0.50000000  1
  N  N38  1  0.69991553  0.10002194  0.50015632  1
  N  N39  1  0.70023432  0.30022330  0.49885594  1
  N  N40  1  0.70272297  0.49752729  0.49937436  1
  N  N41  1  0.70075914  0.70076416  0.49619176  1
  N  N42  1  0.70058627  0.89962278  0.49947737  1
  N  N43  1  0.89985990  0.10000483  0.50033814  1
  N  N44  1  0.90064873  0.29951529  0.49958995  1
  N  N45  1  0.89986022  0.49987441  0.50066346  1
  N  N46  1  0.90008919  0.70009683  0.49953492  1
  N  N47  1  0.90012645  0.90010432  0.49942309  1
  Mn  Mn48  1  0.39984473  0.20020693  -0.00012917  1
  Mn  Mn49  1  0.60015527  0.59979307  0.00012917  1
