# generated using pymatgen
data_Al3BN4
_symmetry_space_group_name_H-M   'P 1'
_cell_length_a   7.99305714
_cell_length_b   7.93045036
_cell_length_c   4.13846895
_cell_angle_alpha   90.00000000
_cell_angle_beta   90.00000000
_cell_angle_gamma   90.00000000
_symmetry_Int_Tables_number   1
_chemical_formula_structural   Al3BN4
_chemical_formula_sum   'Al12 B4 N16'
_cell_volume   262.33151647
_cell_formula_units_Z   4
loop_
 _symmetry_equiv_pos_site_id
 _symmetry_equiv_pos_as_xyz
  1  'x, y, z'
loop_
 _atom_site_type_symbol
 _atom_site_label
 _atom_site_symmetry_multiplicity
 _atom_site_fract_x
 _atom_site_fract_y
 _atom_site_fract_z
 _atom_site_occupancy
  Al  Al0  1  0.99941033  0.99082814  0.00000000  1
  Al  Al1  1  0.97552515  0.25818383  0.50000000  1
  Al  Al2  1  0.25000000  0.00244100  0.50000000  1
  Al  Al3  1  0.25000000  0.26017007  0.00000000  1
  Al  Al4  1  0.99669519  0.50895050  0.00000000  1
  Al  Al5  1  0.01671506  0.74344974  0.50000000  1
  Al  Al6  1  0.25000000  0.50100333  0.50000000  1
  Al  Al7  1  0.50058967  0.99082814  0.00000000  1
  Al  Al8  1  0.52447485  0.25818383  0.50000000  1
  Al  Al9  1  0.75000000  0.94352567  0.50000000  1
  Al  Al10  1  0.50330481  0.50895050  0.00000000  1
  Al  Al11  1  0.48328494  0.74344974  0.50000000  1
  N  N12  1  0.25000000  0.25241292  0.50000000  1
  N  N13  1  0.25000000  0.03171966  0.00000000  1
  N  N14  1  0.94069327  0.25566134  0.00000000  1
  N  N15  1  0.98207728  0.00215465  0.50000000  1
  N  N16  1  0.25000000  0.75398791  0.50000000  1
  N  N17  1  0.25000000  0.49876978  0.00000000  1
  N  N18  1  0.05432647  0.74862716  0.00000000  1
  N  N19  1  0.01052187  0.50286675  0.50000000  1
  N  N20  1  0.75000000  0.32434605  0.50000000  1
  N  N21  1  0.75000000  0.91136786  0.00000000  1
  N  N22  1  0.55930673  0.25566134  0.00000000  1
  N  N23  1  0.51792272  0.00215465  0.50000000  1
  N  N24  1  0.75000000  0.70582880  0.50000000  1
  N  N25  1  0.75000000  0.53597345  0.00000000  1
  N  N26  1  0.44567353  0.74862716  0.00000000  1
  N  N27  1  0.48947813  0.50286675  0.50000000  1
  B  B28  1  0.25000000  0.70130050  0.00000000  1
  B  B29  1  0.75000000  0.31732082  0.00000000  1
  B  B30  1  0.75000000  0.51310838  0.50000000  1
  B  B31  1  0.75000000  0.72527957  0.00000000  1
