# generated using pymatgen
data_Al3MoN4
_symmetry_space_group_name_H-M   'P 1'
_cell_length_a   8.40647112
_cell_length_b   8.34255630
_cell_length_c   4.10515144
_cell_angle_alpha   90.00000000
_cell_angle_beta   90.00000000
_cell_angle_gamma   88.95324179
_symmetry_Int_Tables_number   1
_chemical_formula_structural   Al3MoN4
_chemical_formula_sum   'Al12 Mo4 N16'
_cell_volume   287.85221333
_cell_formula_units_Z   4
loop_
 _symmetry_equiv_pos_site_id
 _symmetry_equiv_pos_as_xyz
  1  'x, y, z'
loop_
 _atom_site_type_symbol
 _atom_site_label
 _atom_site_symmetry_multiplicity
 _atom_site_fract_x
 _atom_site_fract_y
 _atom_site_fract_z
 _atom_site_occupancy
  Al  Al0  1  0.99290735  0.00331649  0.00000000  1
  Al  Al1  1  0.99257575  0.25197829  0.50000000  1
  Al  Al2  1  0.01036508  0.75864574  0.50000000  1
  Al  Al3  1  0.25343938  0.50808869  0.50000000  1
  Al  Al4  1  0.25707512  0.74678756  0.00000000  1
  Al  Al5  1  0.50868778  0.99433454  0.00000000  1
  Al  Al6  1  0.50393650  0.25129229  0.50000000  1
  Al  Al7  1  0.74949982  0.00054892  0.50000000  1
  Al  Al8  1  0.74585997  0.24267985  0.00000000  1
  Al  Al9  1  0.49446487  0.49876292  0.00000000  1
  Al  Al10  1  0.50004200  0.75038927  0.50000000  1
  Al  Al11  1  0.74096250  0.49261475  0.50000000  1
  Mo  Mo12  1  0.25131873  0.02082395  0.50000000  1
  Mo  Mo13  1  0.24689804  0.23314017  0.00000000  1
  Mo  Mo14  1  0.97995696  0.51695775  0.00000000  1
  Mo  Mo15  1  0.76988862  0.72852486  0.00000000  1
  N  N16  1  0.24899374  0.27946575  0.50000000  1
  N  N17  1  0.25669308  0.97830959  0.00000000  1
  N  N18  1  0.98598847  0.24297641  0.00000000  1
  N  N19  1  0.98916887  0.00279375  0.50000000  1
  N  N20  1  0.25261593  0.74661407  0.50000000  1
  N  N21  1  0.25658937  0.50826737  0.00000000  1
  N  N22  1  0.01808658  0.76829628  0.00000000  1
  N  N23  1  0.99584468  0.49987463  0.50000000  1
  N  N24  1  0.74817478  0.24964047  0.50000000  1
  N  N25  1  0.75003829  0.00076007  0.00000000  1
  N  N26  1  0.50573202  0.24428981  0.00000000  1
  N  N27  1  0.51161794  0.00102943  0.50000000  1
  N  N28  1  0.75006490  0.74911223  0.50000000  1
  N  N29  1  0.73090632  0.47982908  0.00000000  1
  N  N30  1  0.49999211  0.74902511  0.00000000  1
  N  N31  1  0.50161446  0.50082990  0.50000000  1
