# generated using pymatgen
data_Al23B2N25
_symmetry_space_group_name_H-M   'P 1'
_cell_length_a   14.29264440
_cell_length_b   14.29264441
_cell_length_c   2.85249795
_cell_angle_alpha   60.06976730
_cell_angle_beta   60.06976722
_cell_angle_gamma   59.85445885
_symmetry_Int_Tables_number   1
_chemical_formula_structural   Al23B2N25
_chemical_formula_sum   'Al23 B2 N25'
_cell_volume   412.01376157
_cell_formula_units_Z   1
loop_
 _symmetry_equiv_pos_site_id
 _symmetry_equiv_pos_as_xyz
  1  'x, y, z'
loop_
 _atom_site_type_symbol
 _atom_site_label
 _atom_site_symmetry_multiplicity
 _atom_site_fract_x
 _atom_site_fract_y
 _atom_site_fract_z
 _atom_site_occupancy
  Al  Al0  1  0.99785504  0.99862714  0.00879454  1
  Al  Al1  1  0.99954947  0.20053593  0.99978652  1
  Al  Al2  1  0.99682648  0.40548229  0.99422808  1
  Al  Al3  1  0.99055946  0.60944054  -0.00000000  1
  Al  Al4  1  0.20162316  0.00162316  0.99188418  1
  Al  Al5  1  0.19950121  0.20204244  0.99614089  1
  Al  Al6  1  0.19717179  0.40282821  -0.00000000  1
  Al  Al7  1  0.19451771  0.60317352  0.00577192  1
  Al  Al8  1  0.19862714  0.79785504  0.00879454  1
  Al  Al9  1  0.40204244  0.99950121  0.99614089  1
  Al  Al10  1  0.40000000  0.20000000  -0.00000000  1
  Al  Al11  1  0.39795756  0.40049879  0.00385911  1
  Al  Al12  1  0.39946407  0.60045053  0.00021348  1
  Al  Al13  1  0.40053593  0.79954947  0.99978652  1
  Al  Al14  1  0.60282821  0.99717179  -0.00000000  1
  Al  Al15  1  0.60049879  0.19795756  0.00385911  1
  Al  Al16  1  0.59837684  0.39837684  0.00811582  1
  Al  Al17  1  0.60137286  0.60214496  0.99120546  1
  Al  Al18  1  0.60548229  0.79682648  0.99422808  1
  Al  Al19  1  0.80317352  0.99451771  0.00577192  1
  Al  Al20  1  0.80045053  0.19946407  0.00021348  1
  Al  Al21  1  0.80214496  0.40137286  0.99120546  1
  Al  Al22  1  0.80944054  0.79055946  -0.00000000  1
  N  N23  1  0.10022925  0.09699860  0.50693037  1
  N  N24  1  0.09849309  0.30072825  0.50194667  1
  N  N25  1  0.09835121  0.50164879  0.50000000  1
  N  N26  1  0.09436060  0.70876990  0.49217376  1
  N  N27  1  0.09244345  0.89244345  0.53778275  1
  N  N28  1  0.30011293  0.10011293  0.49943536  1
  N  N29  1  0.29949634  0.30050366  0.50000000  1
  N  N30  1  0.29927175  0.50150691  0.49805333  1
  N  N31  1  0.29993369  0.69994307  0.50030809  1
  N  N32  1  0.29699860  0.90022925  0.50693037  1
  N  N33  1  0.50050366  0.09949634  0.50000000  1
  N  N34  1  0.49988707  0.29988707  0.50056464  1
  N  N35  1  0.50300140  0.49977075  0.49306963  1
  N  N36  1  0.50006631  0.70005693  0.49969191  1
  N  N37  1  0.50072825  0.89849309  0.50194667  1
  N  N38  1  0.70150691  0.09927175  0.49805333  1
  N  N39  1  0.69977075  0.30300140  0.49306963  1
  N  N40  1  0.70755655  0.50755655  0.46221725  1
  N  N41  1  0.70563940  0.69123010  0.50782624  1
  N  N42  1  0.70164879  0.89835121  0.50000000  1
  N  N43  1  0.89994307  0.09993369  0.50030809  1
  N  N44  1  0.90005693  0.30006631  0.49969191  1
  N  N45  1  0.89123010  0.50563940  0.50782624  1
  N  N46  1  0.90000000  0.70000000  0.50000000  1
  N  N47  1  0.90876990  0.89436060  0.49217376  1
  B  B48  1  0.01270110  0.81270110  0.93649449  1
  B  B49  1  0.78729890  0.58729890  0.06350551  1
