# generated using pymatgen
data_YAl3N4
_symmetry_space_group_name_H-M   'P 1'
_cell_length_a   8.31933278
_cell_length_b   9.68516921
_cell_length_c   4.26683844
_cell_angle_alpha   90.00000000
_cell_angle_beta   90.00000000
_cell_angle_gamma   88.70990606
_symmetry_Int_Tables_number   1
_chemical_formula_structural   YAl3N4
_chemical_formula_sum   'Y4 Al12 N16'
_cell_volume   343.70971528
_cell_formula_units_Z   4
loop_
 _symmetry_equiv_pos_site_id
 _symmetry_equiv_pos_as_xyz
  1  'x, y, z'
loop_
 _atom_site_type_symbol
 _atom_site_label
 _atom_site_symmetry_multiplicity
 _atom_site_fract_x
 _atom_site_fract_y
 _atom_site_fract_z
 _atom_site_occupancy
  Y  Y0  1  0.97600088  0.01468449  0.00000000  1
  Y  Y1  1  0.25416126  0.24176038  0.00000000  1
  Y  Y2  1  0.54353430  0.20667407  0.50000000  1
  Y  Y3  1  0.49470484  0.49990558  0.00000000  1
  Al  Al4  1  0.00594864  0.32019073  0.50000000  1
  Al  Al5  1  0.24150819  0.94474885  0.50000000  1
  Al  Al6  1  0.00331535  0.53891327  0.00000000  1
  Al  Al7  1  0.00077097  0.74134107  0.50000000  1
  Al  Al8  1  0.24792110  0.51161792  0.50000000  1
  Al  Al9  1  0.24044746  0.73170584  0.00000000  1
  Al  Al10  1  0.49108531  0.94139772  0.00000000  1
  Al  Al11  1  0.74032346  0.92567446  0.50000000  1
  Al  Al12  1  0.76933211  0.31697698  0.00000000  1
  Al  Al13  1  0.48946091  0.73596591  0.50000000  1
  Al  Al14  1  0.75410797  0.52267709  0.50000000  1
  Al  Al15  1  0.75160494  0.73641947  0.00000000  1
  N  N16  1  0.24400935  0.30527144  0.50000000  1
  N  N17  1  0.26165627  0.98812772  0.00000000  1
  N  N18  1  0.98647352  0.26400314  0.00000000  1
  N  N19  1  0.98786428  0.94688098  0.50000000  1
  N  N20  1  0.24422834  0.74699791  0.50000000  1
  N  N21  1  0.22949274  0.52572578  0.00000000  1
  N  N22  1  0.99733671  0.73876185  0.00000000  1
  N  N23  1  0.00514019  0.52554429  0.50000000  1
  N  N24  1  0.77808183  0.31487730  0.50000000  1
  N  N25  1  0.72028522  0.94678843  0.00000000  1
  N  N26  1  0.54130133  0.26473487  0.00000000  1
  N  N27  1  0.49565973  0.96008551  0.50000000  1
  N  N28  1  0.74740653  0.73172252  0.50000000  1
  N  N29  1  0.77206200  0.52269830  0.00000000  1
  N  N30  1  0.48531422  0.74692099  0.00000000  1
  N  N31  1  0.49946004  0.54020515  0.50000000  1
