# generated using pymatgen
data_ZrAl3N4
_symmetry_space_group_name_H-M   'P 1'
_cell_length_a   8.48432167
_cell_length_b   8.51296984
_cell_length_c   4.29035213
_cell_angle_alpha   90.00000000
_cell_angle_beta   90.00000000
_cell_angle_gamma   90.21383216
_symmetry_Int_Tables_number   1
_chemical_formula_structural   ZrAl3N4
_chemical_formula_sum   'Zr4 Al12 N16'
_cell_volume   309.87613758
_cell_formula_units_Z   4
loop_
 _symmetry_equiv_pos_site_id
 _symmetry_equiv_pos_as_xyz
  1  'x, y, z'
loop_
 _atom_site_type_symbol
 _atom_site_label
 _atom_site_symmetry_multiplicity
 _atom_site_fract_x
 _atom_site_fract_y
 _atom_site_fract_z
 _atom_site_occupancy
  Al  Al0  1  0.02245387  0.99312470  0.00000000  1
  Al  Al1  1  0.25573839  0.00065929  0.50000000  1
  Al  Al2  1  0.25451781  0.25372195  0.00000000  1
  Al  Al3  1  0.00954470  0.50705626  0.00000000  1
  Al  Al4  1  0.02444922  0.74707115  0.50000000  1
  Al  Al5  1  0.25296760  0.49931694  0.50000000  1
  Al  Al6  1  0.25486354  0.74649890  0.00000000  1
  Al  Al7  1  0.48458876  0.00189261  0.00000000  1
  Al  Al8  1  0.49144903  0.25774192  0.50000000  1
  Al  Al9  1  0.48837161  0.49961896  0.00000000  1
  Al  Al10  1  0.48815257  0.74660165  0.50000000  1
  Al  Al11  1  0.73900381  0.50234264  0.50000000  1
  Zr  Zr12  1  0.99428211  0.24648911  0.50000000  1
  Zr  Zr13  1  0.75156784  0.00488551  0.50000000  1
  Zr  Zr14  1  0.75163577  0.24756168  0.00000000  1
  Zr  Zr15  1  0.75053308  0.75078490  0.00000000  1
  N  N16  1  0.26324812  0.25356738  0.50000000  1
  N  N17  1  0.25277322  0.99670904  0.00000000  1
  N  N18  1  0.02294083  0.24714462  0.00000000  1
  N  N19  1  0.02316610  0.97981415  0.50000000  1
  N  N20  1  0.25491308  0.74406594  0.50000000  1
  N  N21  1  0.24885424  0.50137802  0.00000000  1
  N  N22  1  0.01706832  0.75022302  0.00000000  1
  N  N23  1  0.00602416  0.51545948  0.50000000  1
  N  N24  1  0.72334811  0.27439299  0.50000000  1
  N  N25  1  0.74364737  0.99776370  0.00000000  1
  N  N26  1  0.48296840  0.25257473  0.00000000  1
  N  N27  1  0.48383755  0.99502499  0.50000000  1
  N  N28  1  0.73344051  0.73232433  0.50000000  1
  N  N29  1  0.75254243  0.50158836  0.00000000  1
  N  N30  1  0.48561772  0.74784850  0.00000000  1
  N  N31  1  0.49149015  0.50475256  0.50000000  1
