# generated using pymatgen
data_Al23Ni2N25
_symmetry_space_group_name_H-M   'P 1'
_cell_length_a   14.39108527
_cell_length_b   14.39239569
_cell_length_c   2.88177037
_cell_angle_alpha   59.96216956
_cell_angle_beta   59.95915277
_cell_angle_gamma   60.04727231
_symmetry_Int_Tables_number   1
_chemical_formula_structural   Al23Ni2N25
_chemical_formula_sum   'Al23 Ni2 N25'
_cell_volume   421.95608177
_cell_formula_units_Z   1
loop_
 _symmetry_equiv_pos_site_id
 _symmetry_equiv_pos_as_xyz
  1  'x, y, z'
loop_
 _atom_site_type_symbol
 _atom_site_label
 _atom_site_symmetry_multiplicity
 _atom_site_fract_x
 _atom_site_fract_y
 _atom_site_fract_z
 _atom_site_occupancy
  Al  Al0  1  0.00271988  0.00051723  0.99190721  1
  Al  Al1  1  0.99858707  0.20129591  0.00029254  1
  Al  Al2  1  0.00059339  0.39978123  0.99906346  1
  Al  Al3  1  0.00009627  0.59994348  0.99990063  1
  Al  Al4  1  0.99846413  0.79908879  0.00611767  1
  Al  Al5  1  0.19907147  0.19812618  0.00700587  1
  Al  Al6  1  0.20012017  0.39948493  0.00098723  1
  Al  Al7  1  0.19953458  0.60059253  0.99968226  1
  Al  Al8  1  0.20099376  0.80205155  0.99238671  1
  Al  Al9  1  0.39605207  0.00104842  0.00724877  1
  Al  Al10  1  0.40122753  0.20087891  0.99473392  1
  Al  Al11  1  0.40000000  0.40000000  -0.00000000  1
  Al  Al12  1  0.39877247  0.59912109  0.00526608  1
  Al  Al13  1  0.40394793  0.79895158  0.99275123  1
  Al  Al14  1  0.59900624  0.99794845  0.00761329  1
  Al  Al15  1  0.60046542  0.19940747  0.00031774  1
  Al  Al16  1  0.59987983  0.40051507  0.99901277  1
  Al  Al17  1  0.60092853  0.60187382  0.99299413  1
  Al  Al18  1  0.80153587  0.00091121  0.99388233  1
  Al  Al19  1  0.79990373  0.20005652  0.00009937  1
  Al  Al20  1  0.79940661  0.40021877  0.00093654  1
  Al  Al21  1  0.80141293  0.59870409  0.99970746  1
  Al  Al22  1  0.79728012  0.79948277  0.00809279  1
  N  N23  1  0.09665813  0.10343511  0.49976693  1
  N  N24  1  0.09986833  0.30047547  0.49914049  1
  N  N25  1  0.10003339  0.50012355  0.49960765  1
  N  N26  1  0.09990216  0.70050937  0.49897118  1
  N  N27  1  0.09983323  0.89990016  0.50066654  1
  N  N28  1  0.29976836  0.10065781  0.49893459  1
  N  N29  1  0.30020043  0.29955302  0.50061638  1
  N  N30  1  0.29974955  0.49968430  0.50141536  1
  N  N31  1  0.30055114  0.69955504  0.49973455  1
  N  N32  1  0.30281861  0.89727112  0.49977569  1
  N  N33  1  0.49944886  0.10044496  0.50026545  1
  N  N34  1  0.50025045  0.30031570  0.49858464  1
  N  N35  1  0.49979957  0.50044698  0.49938362  1
  N  N36  1  0.50023164  0.69934219  0.50106541  1
  N  N37  1  0.49718139  0.90272888  0.50022431  1
  N  N38  1  0.70009784  0.09949063  0.50102882  1
  N  N39  1  0.69996661  0.29987645  0.50039235  1
  N  N40  1  0.70013167  0.49952453  0.50085951  1
  N  N41  1  0.70334187  0.69656489  0.50023307  1
  N  N42  1  0.70016677  0.90009984  0.49933346  1
  N  N43  1  0.89976017  0.10037416  0.49966416  1
  N  N44  1  0.89966143  0.30043859  0.49974997  1
  N  N45  1  0.90033857  0.49956141  0.50025003  1
  N  N46  1  0.90023983  0.69962584  0.50033584  1
  N  N47  1  0.90000000  0.90000000  0.50000000  1
  Ni  Ni48  1  0.20006318  0.99964895  0.00071968  1
  Ni  Ni49  1  0.59993682  0.80035105  0.99928032  1
