# generated using pymatgen
data_Nb2Al23N25
_symmetry_space_group_name_H-M   'P 1'
_cell_length_a   14.58012903
_cell_length_b   14.53168765
_cell_length_c   2.87794039
_cell_angle_alpha   60.32269137
_cell_angle_beta   60.43111296
_cell_angle_gamma   60.11184841
_symmetry_Int_Tables_number   1
_chemical_formula_structural   Nb2Al23N25
_chemical_formula_sum   'Nb2 Al23 N25'
_cell_volume   433.97439424
_cell_formula_units_Z   1
loop_
 _symmetry_equiv_pos_site_id
 _symmetry_equiv_pos_as_xyz
  1  'x, y, z'
loop_
 _atom_site_type_symbol
 _atom_site_label
 _atom_site_symmetry_multiplicity
 _atom_site_fract_x
 _atom_site_fract_y
 _atom_site_fract_z
 _atom_site_occupancy
  Al  Al0  1  0.00696591  0.99802631  0.98751944  1
  Al  Al1  1  0.00435818  0.20049452  0.98786824  1
  Al  Al2  1  0.00122170  0.39990034  0.99719489  1
  Al  Al3  1  0.99996274  0.59828996  0.00436827  1
  Al  Al4  1  0.00400627  0.79543593  0.00139451  1
  Al  Al5  1  0.20224701  0.00044262  0.99327590  1
  Al  Al6  1  0.20000000  0.20000000  0.00000000  1
  Al  Al7  1  0.19775299  0.39955738  0.00672410  1
  Al  Al8  1  0.19899732  0.59931076  0.00422980  1
  Al  Al9  1  0.20100268  0.80068924  0.99577020  1
  Al  Al10  1  0.39877830  0.00009966  0.00280511  1
  Al  Al11  1  0.39564182  0.19950548  0.01213176  1
  Al  Al12  1  0.39303409  0.40197369  0.01248056  1
  Al  Al13  1  0.39599373  0.60456407  0.99860549  1
  Al  Al14  1  0.40003726  0.80171004  0.99563173  1
  Al  Al15  1  0.59427902  0.00020746  0.01378379  1
  Al  Al16  1  0.59292917  0.19975093  0.01829977  1
  Al  Al17  1  0.59942751  0.60394110  0.99157844  1
  Al  Al18  1  0.59902539  0.80011944  0.00213791  1
  Al  Al19  1  0.80707083  0.20024907  0.98170023  1
  Al  Al20  1  0.80572098  0.39979254  0.98621621  1
  Al  Al21  1  0.80097461  0.59988056  0.99786209  1
  Al  Al22  1  0.80057249  0.79605890  0.00842156  1
  N  N23  1  0.10349487  0.09979566  0.49177369  1
  N  N24  1  0.10069084  0.29979734  0.49877956  1
  N  N25  1  0.09885863  0.49936569  0.50443920  1
  N  N26  1  0.10224765  0.69669601  0.50264084  1
  N  N27  1  0.10334887  0.89988625  0.49191222  1
  N  N28  1  0.29930916  0.10020266  0.50122044  1
  N  N29  1  0.29650513  0.30020434  0.50822631  1
  N  N30  1  0.29665113  0.50011375  0.50808778  1
  N  N31  1  0.29775235  0.70330399  0.49735916  1
  N  N32  1  0.30114137  0.90063431  0.49556080  1
  N  N33  1  0.49545298  0.09889937  0.51411914  1
  N  N34  1  0.48972566  0.29921424  0.52765026  1
  N  N35  1  0.48714554  0.51298545  0.49967253  1
  N  N36  1  0.50042523  0.70233649  0.49309571  1
  N  N37  1  0.49857414  0.90041939  0.50251619  1
  N  N38  1  0.68281152  0.11094232  0.51561538  1
  N  N39  1  0.71718848  0.28905768  0.48438462  1
  N  N40  1  0.70425423  0.50385535  0.47972604  1
  N  N41  1  0.70000000  0.70000000  0.50000000  1
  N  N42  1  0.69574577  0.89614465  0.52027396  1
  N  N43  1  0.91027434  0.10078576  0.47234974  1
  N  N44  1  0.90454702  0.30110063  0.48588086  1
  N  N45  1  0.90142586  0.49958061  0.49748381  1
  N  N46  1  0.89957477  0.69766351  0.50690429  1
  N  N47  1  0.91285446  0.88701455  0.50032747  1
  Nb  Nb48  1  0.60033267  0.39836265  0.00326171  1
  Nb  Nb49  1  0.79966733  0.00163735  0.99673829  1
