# generated using pymatgen
data_Al15CrN16
_symmetry_space_group_name_H-M   'P 1'
_cell_length_a   8.16528525
_cell_length_b   8.16528525
_cell_length_c   4.04781559
_cell_angle_alpha   90.00000000
_cell_angle_beta   90.00000000
_cell_angle_gamma   90.00000000
_symmetry_Int_Tables_number   1
_chemical_formula_structural   Al15CrN16
_chemical_formula_sum   'Al15 Cr1 N16'
_cell_volume   269.87548829
_cell_formula_units_Z   1
loop_
 _symmetry_equiv_pos_site_id
 _symmetry_equiv_pos_as_xyz
  1  'x, y, z'
loop_
 _atom_site_type_symbol
 _atom_site_label
 _atom_site_symmetry_multiplicity
 _atom_site_fract_x
 _atom_site_fract_y
 _atom_site_fract_z
 _atom_site_occupancy
  Al  Al0  1  -0.00000000  -0.00000000  -0.00000000  1
  Al  Al1  1  -0.00000000  0.24969985  0.50000000  1
  Al  Al2  1  0.24950810  -0.00000000  0.50000000  1
  Al  Al3  1  0.25044343  0.24955657  -0.00000000  1
  Al  Al4  1  -0.00000000  0.50000000  -0.00000000  1
  Al  Al5  1  -0.00000000  0.75030015  0.50000000  1
  Al  Al6  1  0.25030015  0.50000000  0.50000000  1
  Al  Al7  1  0.25044343  0.75044343  -0.00000000  1
  Al  Al8  1  0.50000000  0.25049190  0.50000000  1
  Al  Al9  1  0.75049190  -0.00000000  0.50000000  1
  Al  Al10  1  0.74955657  0.24955657  0.00000000  1
  Al  Al11  1  0.50000000  0.50000000  -0.00000000  1
  Al  Al12  1  0.50000000  0.74950810  0.50000000  1
  Al  Al13  1  0.74969985  0.50000000  0.50000000  1
  Al  Al14  1  0.74955657  0.75044343  0.00000000  1
  N  N15  1  0.25090111  0.24909889  0.50000000  1
  N  N16  1  0.24579704  -0.00000000  -0.00000000  1
  N  N17  1  -0.00000000  0.25043208  -0.00000000  1
  N  N18  1  -0.00000000  -0.00000000  0.50000000  1
  N  N19  1  0.25090111  0.75090111  0.50000000  1
  N  N20  1  0.24956792  0.50000000  0.00000000  1
  N  N21  1  -0.00000000  0.74956792  0.00000000  1
  N  N22  1  -0.00000000  0.50000000  0.50000000  1
  N  N23  1  0.74909889  0.24909889  0.50000000  1
  N  N24  1  0.75420296  -0.00000000  0.00000000  1
  N  N25  1  0.50000000  0.25420296  0.00000000  1
  N  N26  1  0.50000000  -0.00000000  0.50000000  1
  N  N27  1  0.74909889  0.75090111  0.50000000  1
  N  N28  1  0.75043208  0.50000000  -0.00000000  1
  N  N29  1  0.50000000  0.74579704  -0.00000000  1
  N  N30  1  0.50000000  0.50000000  0.50000000  1
  Cr  Cr31  1  0.50000000  -0.00000000  -0.00000000  1
