# generated using pymatgen
data_TaAl15N16
_symmetry_space_group_name_H-M   'P 1'
_cell_length_a   8.21398509
_cell_length_b   8.21398509
_cell_length_c   4.11523632
_cell_angle_alpha   90.00000000
_cell_angle_beta   90.00000000
_cell_angle_gamma   90.00000000
_symmetry_Int_Tables_number   1
_chemical_formula_structural   TaAl15N16
_chemical_formula_sum   'Ta1 Al15 N16'
_cell_volume   277.65314701
_cell_formula_units_Z   1
loop_
 _symmetry_equiv_pos_site_id
 _symmetry_equiv_pos_as_xyz
  1  'x, y, z'
loop_
 _atom_site_type_symbol
 _atom_site_label
 _atom_site_symmetry_multiplicity
 _atom_site_fract_x
 _atom_site_fract_y
 _atom_site_fract_z
 _atom_site_occupancy
  Al  Al0  1  0.00440101  -0.00000000  -0.00000000  1
  Al  Al1  1  0.00345111  0.25345111  0.50000000  1
  Al  Al2  1  0.25000000  -0.00000000  0.50000000  1
  Al  Al3  1  0.25000000  0.25036153  0.00000000  1
  Al  Al4  1  0.00036153  0.50000000  -0.00000000  1
  Al  Al5  1  0.00345111  0.74654889  0.50000000  1
  Al  Al6  1  0.25000000  0.50000000  0.50000000  1
  Al  Al7  1  0.25000000  0.74963847  -0.00000000  1
  Al  Al8  1  0.49559899  -0.00000000  0.00000000  1
  Al  Al9  1  0.49654889  0.25345111  0.50000000  1
  Al  Al10  1  0.75000000  0.25440101  -0.00000000  1
  Al  Al11  1  0.49963847  0.50000000  -0.00000000  1
  Al  Al12  1  0.49654889  0.74654889  0.50000000  1
  Al  Al13  1  0.75000000  0.50000000  0.50000000  1
  Al  Al14  1  0.75000000  0.74559899  -0.00000000  1
  N  N15  1  0.25000000  0.25225946  0.50000000  1
  N  N16  1  0.25000000  -0.00000000  -0.00000000  1
  N  N17  1  -0.00002357  0.24997643  -0.00000000  1
  N  N18  1  0.01351686  -0.00000000  0.50000000  1
  N  N19  1  0.25000000  0.74774054  0.50000000  1
  N  N20  1  0.25000000  0.50000000  -0.00000000  1
  N  N21  1  -0.00002357  0.75002357  -0.00000000  1
  N  N22  1  0.00225946  0.50000000  0.50000000  1
  N  N23  1  0.75000000  0.26351686  0.50000000  1
  N  N24  1  0.75000000  -0.00000000  -0.00000000  1
  N  N25  1  0.50002357  0.24997643  -0.00000000  1
  N  N26  1  0.48648314  -0.00000000  0.50000000  1
  N  N27  1  0.75000000  0.73648314  0.50000000  1
  N  N28  1  0.75000000  0.50000000  -0.00000000  1
  N  N29  1  0.50002357  0.75002357  -0.00000000  1
  N  N30  1  0.49774054  0.50000000  0.50000000  1
  Ta  Ta31  1  0.75000000  -0.00000000  0.50000000  1
