# generated using pymatgen
data_NbAl15N16
_symmetry_space_group_name_H-M   'P 1'
_cell_length_a   8.21502100
_cell_length_b   8.21502100
_cell_length_c   4.11079562
_cell_angle_alpha   90.00000000
_cell_angle_beta   90.00000000
_cell_angle_gamma   90.00000000
_symmetry_Int_Tables_number   1
_chemical_formula_structural   NbAl15N16
_chemical_formula_sum   'Nb1 Al15 N16'
_cell_volume   277.42349649
_cell_formula_units_Z   1
loop_
 _symmetry_equiv_pos_site_id
 _symmetry_equiv_pos_as_xyz
  1  'x, y, z'
loop_
 _atom_site_type_symbol
 _atom_site_label
 _atom_site_symmetry_multiplicity
 _atom_site_fract_x
 _atom_site_fract_y
 _atom_site_fract_z
 _atom_site_occupancy
  Al  Al0  1  0.00000000  0.99548883  0.00000000  1
  Al  Al1  1  0.25320947  0.99679053  0.50000000  1
  Al  Al2  1  0.25451117  0.25000000  0.00000000  1
  Al  Al3  1  0.00000000  0.50451117  0.00000000  1
  Al  Al4  1  0.00000000  0.75000000  0.50000000  1
  Al  Al5  1  0.25320947  0.50320947  0.50000000  1
  Al  Al6  1  0.25049582  0.75000000  0.00000000  1
  Al  Al7  1  0.50000000  0.99950418  0.00000000  1
  Al  Al8  1  0.50000000  0.25000000  0.50000000  1
  Al  Al9  1  0.74679053  0.99679053  0.50000000  1
  Al  Al10  1  0.74548883  0.25000000  0.00000000  1
  Al  Al11  1  0.50000000  0.50049582  0.00000000  1
  Al  Al12  1  0.50000000  0.75000000  0.50000000  1
  Al  Al13  1  0.74679053  0.50320947  0.50000000  1
  Al  Al14  1  0.74950418  0.75000000  0.00000000  1
  Nb  Nb15  1  0.00000000  0.25000000  0.50000000  1
  N  N16  1  0.26374905  0.25000000  0.50000000  1
  N  N17  1  0.24994465  0.00005535  0.00000000  1
  N  N18  1  0.00000000  0.25000000  0.00000000  1
  N  N19  1  0.00000000  0.98625095  0.50000000  1
  N  N20  1  0.25241385  0.75000000  0.50000000  1
  N  N21  1  0.24994465  0.49994465  0.00000000  1
  N  N22  1  0.00000000  0.75000000  0.00000000  1
  N  N23  1  0.00000000  0.51374905  0.50000000  1
  N  N24  1  0.73625095  0.25000000  0.50000000  1
  N  N25  1  0.75005535  0.00005535  0.00000000  1
  N  N26  1  0.50000000  0.25000000  0.00000000  1
  N  N27  1  0.50000000  0.99758615  0.50000000  1
  N  N28  1  0.74758615  0.75000000  0.50000000  1
  N  N29  1  0.75005535  0.49994465  0.00000000  1
  N  N30  1  0.50000000  0.75000000  0.00000000  1
  N  N31  1  0.50000000  0.50241385  0.50000000  1
