# generated using pymatgen
data_MnAl15N16
_symmetry_space_group_name_H-M   'P 1'
_cell_length_a   8.16506542
_cell_length_b   8.16506542
_cell_length_c   4.03446902
_cell_angle_alpha   90.00000000
_cell_angle_beta   90.00000000
_cell_angle_gamma   90.00000000
_symmetry_Int_Tables_number   1
_chemical_formula_structural   MnAl15N16
_chemical_formula_sum   'Mn1 Al15 N16'
_cell_volume   268.97116399
_cell_formula_units_Z   1
loop_
 _symmetry_equiv_pos_site_id
 _symmetry_equiv_pos_as_xyz
  1  'x, y, z'
loop_
 _atom_site_type_symbol
 _atom_site_label
 _atom_site_symmetry_multiplicity
 _atom_site_fract_x
 _atom_site_fract_y
 _atom_site_fract_z
 _atom_site_occupancy
  Al  Al0  1  0.99886399  0.00113601  -0.00000000  1
  Al  Al1  1  -0.00014941  0.25000000  0.50000000  1
  Al  Al2  1  0.25000000  0.00018120  0.50000000  1
  Al  Al3  1  0.25000000  0.25000000  -0.00000000  1
  Al  Al4  1  0.99886399  0.49886399  -0.00000000  1
  Al  Al5  1  0.99981880  0.75000000  0.50000000  1
  Al  Al6  1  0.25000000  0.49981880  0.50000000  1
  Al  Al7  1  0.25000000  0.75000000  -0.00000000  1
  Al  Al8  1  0.50113601  0.00113601  -0.00000000  1
  Al  Al9  1  0.50014941  0.25000000  0.50000000  1
  Al  Al10  1  0.75000000  0.00014941  0.50000000  1
  Al  Al11  1  0.50113601  0.49886399  -0.00000000  1
  Al  Al12  1  0.50018120  0.75000000  0.50000000  1
  Al  Al13  1  0.75000000  0.49985059  0.50000000  1
  Al  Al14  1  0.75000000  0.75000000  -0.00000000  1
  N  N15  1  0.25000000  0.25000000  0.50000000  1
  N  N16  1  0.25000000  0.99989007  -0.00000000  1
  N  N17  1  0.00271167  0.25000000  -0.00000000  1
  N  N18  1  0.99913014  0.00086986  0.50000000  1
  N  N19  1  0.25000000  0.75000000  0.50000000  1
  N  N20  1  0.25000000  0.50010993  -0.00000000  1
  N  N21  1  0.00010993  0.75000000  -0.00000000  1
  N  N22  1  0.99913014  0.49913014  0.50000000  1
  N  N23  1  0.75000000  0.25000000  0.50000000  1
  N  N24  1  0.75000000  0.99728833  -0.00000000  1
  N  N25  1  0.49728833  0.25000000  -0.00000000  1
  N  N26  1  0.50086986  0.00086986  0.50000000  1
  N  N27  1  0.75000000  0.75000000  0.50000000  1
  N  N28  1  0.75000000  0.50271167  0.00000000  1
  N  N29  1  0.49989007  0.75000000  -0.00000000  1
  N  N30  1  0.50086986  0.49913014  0.50000000  1
  Mn  Mn31  1  0.75000000  0.25000000  -0.00000000  1
