# generated using pymatgen
data_YAl15N16
_symmetry_space_group_name_H-M   'P 1'
_cell_length_a   8.24223604
_cell_length_b   8.24223604
_cell_length_c   4.20782238
_cell_angle_alpha   90.00000000
_cell_angle_beta   90.00000000
_cell_angle_gamma   90.00000000
_symmetry_Int_Tables_number   1
_chemical_formula_structural   YAl15N16
_chemical_formula_sum   'Y1 Al15 N16'
_cell_volume   285.85611987
_cell_formula_units_Z   1
loop_
 _symmetry_equiv_pos_site_id
 _symmetry_equiv_pos_as_xyz
  1  'x, y, z'
loop_
 _atom_site_type_symbol
 _atom_site_label
 _atom_site_symmetry_multiplicity
 _atom_site_fract_x
 _atom_site_fract_y
 _atom_site_fract_z
 _atom_site_occupancy
  Al  Al0  1  0.00606202  0.00606202  0.00000000  1
  Al  Al1  1  0.00187843  0.25000000  0.50000000  1
  Al  Al2  1  0.25000000  0.00187843  0.50000000  1
  Al  Al3  1  0.25000000  0.25000000  0.00000000  1
  Al  Al4  1  0.00606202  0.49393798  0.00000000  1
  Al  Al5  1  0.00868022  0.75000000  0.50000000  1
  Al  Al6  1  0.25000000  0.49812157  0.50000000  1
  Al  Al7  1  0.25000000  0.75000000  0.00000000  1
  Al  Al8  1  0.49393798  0.00606202  0.00000000  1
  Al  Al9  1  0.49812157  0.25000000  0.50000000  1
  Al  Al10  1  0.75000000  0.00868022  0.50000000  1
  Al  Al11  1  0.75000000  0.25000000  0.00000000  1
  Al  Al12  1  0.49393798  0.49393798  0.00000000  1
  Al  Al13  1  0.49131978  0.75000000  0.50000000  1
  Al  Al14  1  0.75000000  0.49131978  0.50000000  1
  N  N15  1  0.25000000  0.25000000  0.50000000  1
  N  N16  1  0.25000000  0.00431469  0.00000000  1
  N  N17  1  0.00431469  0.25000000  0.00000000  1
  N  N18  1  0.00114183  0.00114183  0.50000000  1
  N  N19  1  0.25000000  0.75000000  0.50000000  1
  N  N20  1  0.25000000  0.49568531  0.00000000  1
  N  N21  1  0.02013798  0.75000000  0.00000000  1
  N  N22  1  0.00114183  0.49885817  0.50000000  1
  N  N23  1  0.75000000  0.25000000  0.50000000  1
  N  N24  1  0.75000000  0.02013798  0.00000000  1
  N  N25  1  0.49568531  0.25000000  0.00000000  1
  N  N26  1  0.49885817  0.00114183  0.50000000  1
  N  N27  1  0.75000000  0.75000000  0.50000000  1
  N  N28  1  0.75000000  0.47986202  0.00000000  1
  N  N29  1  0.47986202  0.75000000  0.00000000  1
  N  N30  1  0.49885817  0.49885817  0.50000000  1
  Y  Y31  1  0.75000000  0.75000000  0.00000000  1
