# generated using pymatgen
data_Zr2Al23N25
_symmetry_space_group_name_H-M   'P 1'
_cell_length_a   14.59186479
_cell_length_b   14.64240227
_cell_length_c   2.89959443
_cell_angle_alpha   60.32575976
_cell_angle_beta   60.21262714
_cell_angle_gamma   60.24736393
_symmetry_Int_Tables_number   1
_chemical_formula_structural   Zr2Al23N25
_chemical_formula_sum   'Zr2 Al23 N25'
_cell_volume   440.66807637
_cell_formula_units_Z   1
loop_
 _symmetry_equiv_pos_site_id
 _symmetry_equiv_pos_as_xyz
  1  'x, y, z'
loop_
 _atom_site_type_symbol
 _atom_site_label
 _atom_site_symmetry_multiplicity
 _atom_site_fract_x
 _atom_site_fract_y
 _atom_site_fract_z
 _atom_site_occupancy
  Al  Al0  1  0.00294231  0.00971215  0.96836385  1
  Al  Al1  1  0.00015588  0.20589933  0.98486200  1
  Al  Al2  1  -0.00000000  0.40000000  0.00000000  1
  Al  Al3  1  0.99984412  0.59410067  0.01513800  1
  Al  Al4  1  0.99705769  0.79028785  0.03163615  1
  Al  Al5  1  0.20050040  0.00742997  0.98017408  1
  Al  Al6  1  0.19970352  0.20172103  0.99643863  1
  Al  Al7  1  0.19962500  0.39701960  0.00838850  1
  Al  Al8  1  0.20236626  0.59074913  0.01721154  1
  Al  Al9  1  0.39962344  0.00122108  0.99788872  1
  Al  Al10  1  0.39760114  0.20003321  0.00591412  1
  Al  Al11  1  0.39925438  0.39866566  0.00519989  1
  Al  Al12  1  0.40548083  0.59536531  0.99788464  1
  Al  Al13  1  0.40626400  0.79935633  0.98594917  1
  Al  Al14  1  0.59373600  0.00064367  0.01405083  1
  Al  Al15  1  0.59451917  0.20463469  0.00211536  1
  Al  Al16  1  0.60074562  0.40133434  0.99480011  1
  Al  Al17  1  0.60239886  0.59996679  0.99408588  1
  Al  Al18  1  0.60037656  0.79877892  0.00211128  1
  Al  Al19  1  0.79763374  0.20925087  0.98278846  1
  Al  Al20  1  0.80037500  0.40298040  0.99161150  1
  Al  Al21  1  0.80029648  0.59827897  0.00356137  1
  Al  Al22  1  0.79949960  0.79257003  0.01982592  1
  N  N23  1  0.10138187  0.10603602  0.48145527  1
  N  N24  1  0.09954478  0.30102664  0.49857146  1
  N  N25  1  0.10041750  0.49548865  0.51023462  1
  N  N26  1  0.09854267  0.68786309  0.53398559  1
  N  N27  1  0.08813298  0.92003715  0.47957469  1
  N  N28  1  0.29908135  0.10205626  0.49715597  1
  N  N29  1  0.29899242  0.29853918  0.50617102  1
  N  N30  1  0.30005496  0.49560558  0.51084864  1
  N  N31  1  0.31566725  0.68451325  0.49954875  1
  N  N32  1  0.30547682  0.90550184  0.47255334  1
  N  N33  1  0.49651575  0.09951713  0.50991779  1
  N  N34  1  0.49579862  0.30270842  0.50373241  1
  N  N35  1  0.50420138  0.49729158  0.49626759  1
  N  N36  1  0.50348425  0.70048287  0.49008221  1
  N  N37  1  0.50000000  0.90000000  0.50000000  1
  N  N38  1  0.68433275  0.11548675  0.50045125  1
  N  N39  1  0.69994504  0.30439442  0.48915136  1
  N  N40  1  0.70100758  0.50146082  0.49382898  1
  N  N41  1  0.70091865  0.69794374  0.50284403  1
  N  N42  1  0.69452318  0.89449816  0.52744666  1
  N  N43  1  0.90145733  0.11213691  0.46601441  1
  N  N44  1  0.89958250  0.30451135  0.48976538  1
  N  N45  1  0.90045522  0.49897336  0.50142854  1
  N  N46  1  0.89861813  0.69396398  0.51854473  1
  N  N47  1  0.91186702  0.87996285  0.52042531  1
  Zr  Zr48  1  0.19895138  0.80035659  0.00173009  1
  Zr  Zr49  1  0.80104862  0.99964341  0.99826991  1
