# generated using pymatgen
data_Y2Al23N25
_symmetry_space_group_name_H-M   'P 1'
_cell_length_a   14.71004125
_cell_length_b   14.71004125
_cell_length_c   2.93923415
_cell_angle_alpha   60.03118698
_cell_angle_beta   60.03118693
_cell_angle_gamma   60.09106101
_symmetry_Int_Tables_number   1
_chemical_formula_structural   Y2Al23N25
_chemical_formula_sum   'Y2 Al23 N25'
_cell_volume   450.24593350
_cell_formula_units_Z   1
loop_
 _symmetry_equiv_pos_site_id
 _symmetry_equiv_pos_as_xyz
  1  'x, y, z'
loop_
 _atom_site_type_symbol
 _atom_site_label
 _atom_site_symmetry_multiplicity
 _atom_site_fract_x
 _atom_site_fract_y
 _atom_site_fract_z
 _atom_site_occupancy
  Al  Al0  1  0.00460919  0.99539081  0.00000000  1
  Al  Al1  1  0.01001815  0.20146687  0.97128745  1
  Al  Al2  1  0.00202586  0.40282625  0.98786973  1
  Al  Al3  1  0.99722499  0.59987918  0.00723956  1
  Al  Al4  1  0.99755828  0.79755828  0.01220864  1
  Al  Al5  1  0.20244172  0.00244172  0.98779136  1
  Al  Al6  1  0.20277501  0.20012082  0.99276044  1
  Al  Al7  1  0.19797414  0.39717375  0.01213027  1
  Al  Al8  1  0.18998185  0.59853313  0.02871255  1
  Al  Al9  1  0.19539081  0.80460919  0.00000000  1
  Al  Al10  1  0.40012082  0.00277501  0.99276044  1
  Al  Al11  1  0.39745201  0.19745201  0.01273994  1
  Al  Al12  1  0.39673995  0.39140671  0.02963335  1
  Al  Al13  1  0.40146687  0.81001815  0.97128745  1
  Al  Al14  1  0.59717375  0.99797414  0.01213027  1
  Al  Al15  1  0.59140671  0.19673995  0.02963335  1
  Al  Al16  1  0.60000000  0.40000000  0.00000000  1
  Al  Al17  1  0.60859329  0.60326005  0.97036665  1
  Al  Al18  1  0.60282625  0.80202586  0.98786973  1
  Al  Al19  1  0.79853313  0.98998185  0.02871255  1
  Al  Al20  1  0.80326005  0.40859329  0.97036665  1
  Al  Al21  1  0.80254799  0.60254799  0.98726006  1
  Al  Al22  1  0.79987918  0.79722499  0.00723956  1
  N  N23  1  0.10464205  0.10186370  0.48373563  1
  N  N24  1  0.10345599  0.30024041  0.49075900  1
  N  N25  1  0.09654401  0.49975959  0.50924100  1
  N  N26  1  0.09535795  0.69813630  0.51626437  1
  N  N27  1  0.10000000  0.90000000  0.50000000  1
  N  N28  1  0.30059879  0.10059879  0.49700607  1
  N  N29  1  0.29896282  0.29667127  0.51091477  1
  N  N30  1  0.29067690  0.49155569  0.54441851  1
  N  N31  1  0.28324562  0.71675438  0.50000000  1
  N  N32  1  0.30186370  0.90464205  0.48373563  1
  N  N33  1  0.49667127  0.09896282  0.51091477  1
  N  N34  1  0.49522551  0.29522551  0.52387244  1
  N  N35  1  0.51168991  0.48831009  0.50000000  1
  N  N36  1  0.50844431  0.70932310  0.45558149  1
  N  N37  1  0.50024041  0.90345599  0.49075900  1
  N  N38  1  0.69155569  0.09067690  0.54441851  1
  N  N39  1  0.68831009  0.31168991  0.50000000  1
  N  N40  1  0.70477449  0.50477449  0.47612756  1
  N  N41  1  0.70332873  0.70103718  0.48908523  1
  N  N42  1  0.69975959  0.89654401  0.50924100  1
  N  N43  1  0.91675438  0.08324562  0.50000000  1
  N  N44  1  0.90932310  0.30844431  0.45558149  1
  N  N45  1  0.90103718  0.50332873  0.48908523  1
  N  N46  1  0.89940121  0.69940121  0.50299393  1
  N  N47  1  0.89813630  0.89535795  0.51626437  1
  Y  Y48  1  0.39798803  0.60201197  0.00000000  1
  Y  Y49  1  0.80201197  0.19798803  0.00000000  1
