# generated using pymatgen
data_ZrTiC2
_symmetry_space_group_name_H-M   'P 1'
_cell_length_a   5.38977221
_cell_length_b   6.22916719
_cell_length_c   11.21875365
_cell_angle_alpha   73.88993050
_cell_angle_beta   76.09590931
_cell_angle_gamma   73.24937591
_symmetry_Int_Tables_number   1
_chemical_formula_structural   ZrTiC2
_chemical_formula_sum   'Zr8 Ti8 C16'
_cell_volume   341.20789774
_cell_formula_units_Z   8
loop_
 _symmetry_equiv_pos_site_id
 _symmetry_equiv_pos_as_xyz
  1  'x, y, z'
loop_
 _atom_site_type_symbol
 _atom_site_label
 _atom_site_symmetry_multiplicity
 _atom_site_fract_x
 _atom_site_fract_y
 _atom_site_fract_z
 _atom_site_occupancy
  C  C0  1  0.74736740  0.71707462  0.67796829  1
  C  C1  1  0.24111938  0.52934620  0.80720686  1
  C  C2  1  0.74461053  0.60157690  0.43748066  1
  C  C3  1  0.25110972  0.76855755  0.32249082  1
  C  C4  1  0.74124681  0.23003861  0.68281863  1
  C  C5  1  0.25586431  0.41153957  0.56243841  1
  C  C6  1  0.24702983  0.04301473  0.80270852  1
  C  C7  1  0.75902727  0.47056026  0.19323971  1
  C  C8  1  0.23832835  0.65003799  0.06649096  1
  C  C9  1  0.73831386  0.08789816  0.44268395  1
  C  C10  1  0.26024794  0.28480467  0.31666136  1
  C  C11  1  0.26135919  0.89960103  0.55748207  1
  C  C12  1  0.76248274  0.35021757  0.93268817  1
  C  C13  1  0.75268262  0.95656775  0.19690013  1
  C  C14  1  0.24511196  0.16450154  0.06275036  1
  C  C15  1  0.75384766  0.83483278  0.93800624  1
  Ti  Ti16  1  0.49805502  0.06497123  0.62101580  1
  Ti  Ti17  1  0.00008650  0.74706526  0.50018317  1
  Ti  Ti18  1  0.50235436  0.93270897  0.37917562  1
  Ti  Ti19  1  0.49914434  0.56501043  0.62050997  1
  Ti  Ti20  1  0.99955262  0.62255742  0.25556234  1
  Ti  Ti21  1  0.50083359  0.43795761  0.37932186  1
  Ti  Ti22  1  0.00011743  0.50020013  0.99994907  1
  Ti  Ti23  1  0.00039127  0.37981895  0.74430568  1
  Zr  Zr24  1  0.00043879  0.25349550  0.49984784  1
  Zr  Zr25  1  0.00205389  0.12146026  0.25643052  1
  Zr  Zr26  1  0.50523631  0.31230754  0.12795333  1
  Zr  Zr27  1  0.99980370  0.99953627  0.99997558  1
  Zr  Zr28  1  0.49911311  0.19121349  0.87158089  1
  Zr  Zr29  1  0.49860323  0.80790056  0.12991815  1
  Zr  Zr30  1  0.99775751  0.87560042  0.74377202  1
  Zr  Zr31  1  0.49670877  0.68802607  0.87048300  1
