# generated using pymatgen
data_ZrTiC2
_symmetry_space_group_name_H-M   'P 1'
_cell_length_a   5.72316019
_cell_length_b   6.61447650
_cell_length_c   11.91269717
_cell_angle_alpha   73.88993052
_cell_angle_beta   76.09590930
_cell_angle_gamma   73.24937594
_symmetry_Int_Tables_number   1
_chemical_formula_structural   ZrTiC2
_chemical_formula_sum   'Zr8 Ti8 C16'
_cell_volume   408.52209150
_cell_formula_units_Z   8
loop_
 _symmetry_equiv_pos_site_id
 _symmetry_equiv_pos_as_xyz
  1  'x, y, z'
loop_
 _atom_site_type_symbol
 _atom_site_label
 _atom_site_symmetry_multiplicity
 _atom_site_fract_x
 _atom_site_fract_y
 _atom_site_fract_z
 _atom_site_occupancy
  C  C0  1  0.75397174  0.71552442  0.67911267  1
  C  C1  1  0.24702266  0.52889703  0.80678930  1
  C  C2  1  0.74295882  0.60144963  0.43836089  1
  C  C3  1  0.24827826  0.77005881  0.32198572  1
  C  C4  1  0.74544326  0.22704207  0.68234031  1
  C  C5  1  0.25512864  0.41171875  0.56123950  1
  C  C6  1  0.25121150  0.04029307  0.80402368  1
  C  C7  1  0.75193245  0.47137999  0.19319427  1
  C  C8  1  0.23988412  0.65169940  0.06531239  1
  C  C9  1  0.73930842  0.08716687  0.44268470  1
  C  C10  1  0.25124284  0.28790580  0.31638388  1
  C  C11  1  0.26345208  0.90043898  0.55800984  1
  C  C12  1  0.76014695  0.34897011  0.93391662  1
  C  C13  1  0.74967578  0.95863109  0.19601886  1
  C  C14  1  0.24417996  0.16279907  0.06328509  1
  C  C15  1  0.75554313  0.83602906  0.93740033  1
  Ti  Ti16  1  0.50318366  0.06390028  0.61978733  1
  Ti  Ti17  1  0.00188523  0.74585703  0.50033990  1
  Ti  Ti18  1  0.50316444  0.92999701  0.38166399  1
  Ti  Ti19  1  0.50493281  0.56417604  0.61959962  1
  Ti  Ti20  1  0.99164776  0.62428815  0.25488426  1
  Ti  Ti21  1  0.48965237  0.44212142  0.37909877  1
  Ti  Ti22  1  0.99944634  0.50044086  0.00010463  1
  Ti  Ti23  1  0.00790824  0.37892609  0.74463609  1
  Zr  Zr24  1  0.99918323  0.25368553  0.49980808  1
  Zr  Zr25  1  0.99595682  0.12292703  0.25620412  1
  Zr  Zr26  1  0.49753926  0.31376211  0.12883762  1
  Zr  Zr27  1  0.00001699  0.99977910  0.99984785  1
  Zr  Zr28  1  0.50085694  0.19153146  0.87026571  1
  Zr  Zr29  1  0.49766283  0.80837440  0.13021100  1
  Zr  Zr30  1  0.00433701  0.87391962  0.74415574  1
  Zr  Zr31  1  0.50324545  0.68630973  0.87049719  1
