# generated using pymatgen
data_ZrTiC2
_symmetry_space_group_name_H-M   'P 1'
_cell_length_a   5.83428951
_cell_length_b   6.74291294
_cell_length_c   12.14401168
_cell_angle_alpha   73.88993049
_cell_angle_beta   76.09590931
_cell_angle_gamma   73.24937587
_symmetry_Int_Tables_number   1
_chemical_formula_structural   ZrTiC2
_chemical_formula_sum   'Zr8 Ti8 C16'
_cell_volume   432.78457099
_cell_formula_units_Z   8
loop_
 _symmetry_equiv_pos_site_id
 _symmetry_equiv_pos_as_xyz
  1  'x, y, z'
loop_
 _atom_site_type_symbol
 _atom_site_label
 _atom_site_symmetry_multiplicity
 _atom_site_fract_x
 _atom_site_fract_y
 _atom_site_fract_z
 _atom_site_occupancy
  C  C0  1  0.75837838  0.71440040  0.67950173  1
  C  C1  1  0.25066197  0.52819761  0.80530332  1
  C  C2  1  0.73968014  0.60203182  0.43930282  1
  C  C3  1  0.24888437  0.76975029  0.32244516  1
  C  C4  1  0.74652977  0.22616223  0.68149832  1
  C  C5  1  0.25452193  0.41207175  0.56023041  1
  C  C6  1  0.25368646  0.03898791  0.80439639  1
  C  C7  1  0.74966611  0.47239713  0.19280673  1
  C  C8  1  0.23972034  0.65209823  0.06493912  1
  C  C9  1  0.74290235  0.08077498  0.44373171  1
  C  C10  1  0.24332140  0.29494001  0.31574247  1
  C  C11  1  0.26516553  0.90160003  0.55821364  1
  C  C12  1  0.75910653  0.34911630  0.93453834  1
  C  C13  1  0.74789441  0.95986944  0.19601396  1
  C  C14  1  0.24370308  0.16168969  0.06398834  1
  C  C15  1  0.75693231  0.83609575  0.93712227  1
  Ti  Ti16  1  0.50699637  0.06135065  0.61880190  1
  Ti  Ti17  1  0.00057005  0.74724146  0.50077667  1
  Ti  Ti18  1  0.50665881  0.92431285  0.38405504  1
  Ti  Ti19  1  0.50832638  0.56180888  0.61929124  1
  Ti  Ti20  1  0.98785949  0.62257289  0.25422468  1
  Ti  Ti21  1  0.47812573  0.44902406  0.37896373  1
  Ti  Ti22  1  0.99761934  0.50120893  0.00090961  1
  Ti  Ti23  1  0.01344718  0.38038590  0.74376405  1
  Zr  Zr24  1  0.99872578  0.25369608  0.49968614  1
  Zr  Zr25  1  0.99191940  0.12333118  0.25647332  1
  Zr  Zr26  1  0.49318306  0.31500480  0.12928751  1
  Zr  Zr27  1  0.00043027  0.00018216  0.99973960  1
  Zr  Zr28  1  0.50256913  0.19167509  0.86922728  1
  Zr  Zr29  1  0.49669869  0.80958444  0.13046732  1
  Zr  Zr30  1  0.00879693  0.87324256  0.74401376  1
  Zr  Zr31  1  0.50731828  0.68519451  0.87054343  1
