# generated using pymatgen
data_ZrTiC2
_symmetry_space_group_name_H-M   'P 1'
_cell_length_a   5.77872485
_cell_length_b   6.67869473
_cell_length_c   12.02835443
_cell_angle_alpha   73.88993048
_cell_angle_beta   76.09590931
_cell_angle_gamma   73.24937588
_symmetry_Int_Tables_number   1
_chemical_formula_structural   ZrTiC2
_chemical_formula_sum   'Zr8 Ti8 C16'
_cell_volume   420.53668863
_cell_formula_units_Z   8
loop_
 _symmetry_equiv_pos_site_id
 _symmetry_equiv_pos_as_xyz
  1  'x, y, z'
loop_
 _atom_site_type_symbol
 _atom_site_label
 _atom_site_symmetry_multiplicity
 _atom_site_fract_x
 _atom_site_fract_y
 _atom_site_fract_z
 _atom_site_occupancy
  C  C0  1  0.75563240  0.71527095  0.67927311  1
  C  C1  1  0.24854022  0.52856713  0.80643645  1
  C  C2  1  0.74216980  0.60179406  0.43871987  1
  C  C3  1  0.24787214  0.77001366  0.32208934  1
  C  C4  1  0.74623926  0.22637142  0.68203681  1
  C  C5  1  0.25494628  0.41174411  0.56083631  1
  C  C6  1  0.25213803  0.03992291  0.80424334  1
  C  C7  1  0.75039061  0.47171788  0.19323876  1
  C  C8  1  0.24009065  0.65189760  0.06503433  1
  C  C9  1  0.73988686  0.08589933  0.44291372  1
  C  C10  1  0.24855148  0.28968349  0.31623950  1
  C  C11  1  0.26416046  0.90071485  0.55802900  1
  C  C12  1  0.75975817  0.34894161  0.93415738  1
  C  C13  1  0.74893601  0.95894770  0.19595239  1
  C  C14  1  0.24384265  0.16248095  0.06353639  1
  C  C15  1  0.75616236  0.83607776  0.93723809  1
  Ti  Ti16  1  0.50479108  0.06334401  0.61933856  1
  Ti  Ti17  1  0.00205018  0.74579171  0.50044615  1
  Ti  Ti18  1  0.50373153  0.92849664  0.38257909  1
  Ti  Ti19  1  0.50655192  0.56385246  0.61929934  1
  Ti  Ti20  1  0.98950447  0.62429206  0.25489076  1
  Ti  Ti21  1  0.48559610  0.44398541  0.37903538  1
  Ti  Ti22  1  0.99913438  0.50063296  0.00022902  1
  Ti  Ti23  1  0.01037856  0.37909674  0.74440330  1
  Zr  Zr24  1  0.99885871  0.25373430  0.49977469  1
  Zr  Zr25  1  0.99423863  0.12324387  0.25632975  1
  Zr  Zr26  1  0.49562006  0.31424535  0.12901840  1
  Zr  Zr27  1  0.00017820  0.99981193  0.99981868  1
  Zr  Zr28  1  0.50168040  0.19150648  0.86990262  1
  Zr  Zr29  1  0.49716681  0.80861886  0.13037774  1
  Zr  Zr30  1  0.00615794  0.87343546  0.74409957  1
  Zr  Zr31  1  0.50504365  0.68586637  0.87048212  1
