# generated using pymatgen
data_ZrTiC2
_symmetry_space_group_name_H-M   'P 1'
_cell_length_a   5.61203086
_cell_length_b   6.48604006
_cell_length_c   11.68138266
_cell_angle_alpha   73.88993049
_cell_angle_beta   76.09590928
_cell_angle_gamma   73.24937593
_symmetry_Int_Tables_number   1
_chemical_formula_structural   ZrTiC2
_chemical_formula_sum   'Zr8 Ti8 C16'
_cell_volume   385.18378231
_cell_formula_units_Z   8
loop_
 _symmetry_equiv_pos_site_id
 _symmetry_equiv_pos_as_xyz
  1  'x, y, z'
loop_
 _atom_site_type_symbol
 _atom_site_label
 _atom_site_symmetry_multiplicity
 _atom_site_fract_x
 _atom_site_fract_y
 _atom_site_fract_z
 _atom_site_occupancy
  C  C0  1  0.75104570  0.71644157  0.67869413  1
  C  C1  1  0.24469079  0.52924463  0.80709599  1
  C  C2  1  0.74382576  0.60120497  0.43788907  1
  C  C3  1  0.24918675  0.76987621  0.32196814  1
  C  C4  1  0.74410523  0.22818643  0.68271908  1
  C  C5  1  0.25545464  0.41140700  0.56189140  1
  C  C6  1  0.24962756  0.04112012  0.80360536  1
  C  C7  1  0.75477873  0.47086486  0.19317158  1
  C  C8  1  0.23964800  0.65111965  0.06574535  1
  C  C9  1  0.73870425  0.08810376  0.44251879  1
  C  C10  1  0.25519443  0.28585709  0.31654386  1
  C  C11  1  0.26211761  0.90018165  0.55785483  1
  C  C12  1  0.76090872  0.34925195  0.93354918  1
  C  C13  1  0.75089957  0.95804476  0.19620330  1
  C  C14  1  0.24478095  0.16333004  0.06298876  1
  C  C15  1  0.75477422  0.83576195  0.93762643  1
  Ti  Ti16  1  0.50075924  0.06445995  0.62041312  1
  Ti  Ti17  1  0.00083912  0.74650397  0.50022550  1
  Ti  Ti18  1  0.50233539  0.93157230  0.38042503  1
  Ti  Ti19  1  0.50217653  0.56464517  0.61998300  1
  Ti  Ti20  1  0.99503928  0.62379009  0.25503904  1
  Ti  Ti21  1  0.49499402  0.43995191  0.37923746  1
  Ti  Ti22  1  0.99994002  0.50024736  0.00000396  1
  Ti  Ti23  1  0.00462821  0.37897834  0.74470370  1
  Zr  Zr24  1  0.99967174  0.25374366  0.49987187  1
  Zr  Zr25  1  0.99858513  0.12231924  0.25615465  1
  Zr  Zr26  1  0.50066260  0.31311319  0.12846944  1
  Zr  Zr27  1  0.99998248  0.99963654  0.99990839  1
  Zr  Zr28  1  0.50004094  0.19145581  0.87085710  1
  Zr  Zr29  1  0.49841172  0.80805006  0.13004904  1
  Zr  Zr30  1  0.00150325  0.87452277  0.74409492  1
  Zr  Zr31  1  0.50068742  0.68701302  0.87049853  1
