# generated using pymatgen
data_ZrTiC2
_symmetry_space_group_name_H-M   'P 1'
_cell_length_a   5.66759552
_cell_length_b   6.55025829
_cell_length_c   11.79703992
_cell_angle_alpha   73.88993051
_cell_angle_beta   76.09590929
_cell_angle_gamma   73.24937595
_symmetry_Int_Tables_number   1
_chemical_formula_structural   ZrTiC2
_chemical_formula_sum   'Zr8 Ti8 C16'
_cell_volume   396.73853706
_cell_formula_units_Z   8
loop_
 _symmetry_equiv_pos_site_id
 _symmetry_equiv_pos_as_xyz
  1  'x, y, z'
loop_
 _atom_site_type_symbol
 _atom_site_label
 _atom_site_symmetry_multiplicity
 _atom_site_fract_x
 _atom_site_fract_y
 _atom_site_fract_z
 _atom_site_occupancy
  C  C0  1  0.75242638  0.71598644  0.67891710  1
  C  C1  1  0.24573811  0.52909699  0.80699510  1
  C  C2  1  0.74348167  0.60131065  0.43809257  1
  C  C3  1  0.24870608  0.77002089  0.32192464  1
  C  C4  1  0.74474275  0.22757350  0.68256645  1
  C  C5  1  0.25528101  0.41153243  0.56160340  1
  C  C6  1  0.25036147  0.04069910  0.80382529  1
  C  C7  1  0.75340708  0.47109804  0.19316997  1
  C  C8  1  0.23980148  0.65134148  0.06556359  1
  C  C9  1  0.73890913  0.08778782  0.44257542  1
  C  C10  1  0.25340687  0.28668647  0.31646365  1
  C  C11  1  0.26277856  0.90032893  0.55795844  1
  C  C12  1  0.76057462  0.34909521  0.93371164  1
  C  C13  1  0.75041067  0.95828886  0.19608698  1
  C  C14  1  0.24452038  0.16309740  0.06311706  1
  C  C15  1  0.75511663  0.83587032  0.93752532  1
  Ti  Ti16  1  0.50181604  0.06431893  0.62015794  1
  Ti  Ti17  1  0.00137487  0.74611841  0.50027963  1
  Ti  Ti18  1  0.50269113  0.93091917  0.38099477  1
  Ti  Ti19  1  0.50341189  0.56455910  0.61980334  1
  Ti  Ti20  1  0.99340579  0.62410562  0.25493571  1
  Ti  Ti21  1  0.49254245  0.44098648  0.37915771  1
  Ti  Ti22  1  0.99974601  0.50029180  0.00003251  1
  Ti  Ti23  1  0.00610912  0.37897112  0.74467451  1
  Zr  Zr24  1  0.99938450  0.25374067  0.49982826  1
  Zr  Zr25  1  0.99738436  0.12260342  0.25618620  1
  Zr  Zr26  1  0.49918739  0.31341794  0.12862759  1
  Zr  Zr27  1  -0.00000164  0.99967242  0.99987534  1
  Zr  Zr28  1  0.50041292  0.19149553  0.87060270  1
  Zr  Zr29  1  0.49813426  0.80816051  0.13010998  1
  Zr  Zr30  1  0.00282128  0.87418712  0.74412002  1
  Zr  Zr31  1  0.50191674  0.68663726  0.87051713  1
