# generated using pymatgen
data_ZrTiC2
_symmetry_space_group_name_H-M   'P 1'
_cell_length_a   5.50090154
_cell_length_b   6.35760363
_cell_length_c   11.45006816
_cell_angle_alpha   73.88993048
_cell_angle_beta   76.09590928
_cell_angle_gamma   73.24937592
_symmetry_Int_Tables_number   1
_chemical_formula_structural   ZrTiC2
_chemical_formula_sum   'Zr8 Ti8 C16'
_cell_volume   362.75170009
_cell_formula_units_Z   8
loop_
 _symmetry_equiv_pos_site_id
 _symmetry_equiv_pos_as_xyz
  1  'x, y, z'
loop_
 _atom_site_type_symbol
 _atom_site_label
 _atom_site_symmetry_multiplicity
 _atom_site_fract_x
 _atom_site_fract_y
 _atom_site_fract_z
 _atom_site_occupancy
  C  C0  1  0.74948290  0.71665125  0.67831085  1
  C  C1  1  0.24323840  0.52927513  0.80715967  1
  C  C2  1  0.74412695  0.60134410  0.43760672  1
  C  C3  1  0.24977469  0.76937114  0.32218641  1
  C  C4  1  0.74300969  0.22903570  0.68284536  1
  C  C5  1  0.25582143  0.41134414  0.56224161  1
  C  C6  1  0.24866400  0.04193310  0.80315618  1
  C  C7  1  0.75667386  0.47070871  0.19321401  1
  C  C8  1  0.23885531  0.65064800  0.06611212  1
  C  C9  1  0.73832754  0.08820327  0.44255983  1
  C  C10  1  0.25750343  0.28528550  0.31659656  1
  C  C11  1  0.26171081  0.89988847  0.55766734  1
  C  C12  1  0.76187953  0.34970364  0.93313710  1
  C  C13  1  0.75139740  0.95749866  0.19652827  1
  C  C14  1  0.24488701  0.16394440  0.06282818  1
  C  C15  1  0.75438862  0.83529535  0.93785151  1
  Ti  Ti16  1  0.49950019  0.06465101  0.62078884  1
  Ti  Ti17  1  0.00038172  0.74688942  0.50018568  1
  Ti  Ti18  1  0.50192163  0.93238162  0.37965345  1
  Ti  Ti19  1  0.50077976  0.56475547  0.62029193  1
  Ti  Ti20  1  0.99711880  0.62324774  0.25533632  1
  Ti  Ti21  1  0.49805979  0.43878456  0.37929461  1
  Ti  Ti22  1  0.00007932  0.50022009  0.99997411  1
  Ti  Ti23  1  0.00270949  0.37927946  0.74451126  1
  Zr  Zr24  1  0.00008992  0.25358156  0.49987722  1
  Zr  Zr25  1  0.00006785  0.12199956  0.25622146  1
  Zr  Zr26  1  0.50286838  0.31273609  0.12818307  1
  Zr  Zr27  1  0.99988250  0.99959526  0.99995434  1
  Zr  Zr28  1  0.49977069  0.19126736  0.87128220  1
  Zr  Zr29  1  0.49832389  0.80801134  0.12997090  1
  Zr  Zr30  1  0.99986763  0.87497590  0.74397862  1
  Zr  Zr31  1  0.49883687  0.68749298  0.87049428  1
