# generated using pymatgen
data_ZrTiC2
_symmetry_space_group_name_H-M   'P 1'
_cell_length_a   5.44533687
_cell_length_b   6.29338541
_cell_length_c   11.33441089
_cell_angle_alpha   73.88993051
_cell_angle_beta   76.09590931
_cell_angle_gamma   73.24937593
_symmetry_Int_Tables_number   1
_chemical_formula_structural   ZrTiC2
_chemical_formula_sum   'Zr8 Ti8 C16'
_cell_volume   351.86988501
_cell_formula_units_Z   8
loop_
 _symmetry_equiv_pos_site_id
 _symmetry_equiv_pos_as_xyz
  1  'x, y, z'
loop_
 _atom_site_type_symbol
 _atom_site_label
 _atom_site_symmetry_multiplicity
 _atom_site_fract_x
 _atom_site_fract_y
 _atom_site_fract_z
 _atom_site_occupancy
  C  C0  1  0.74830700  0.71686070  0.67815021  1
  C  C1  1  0.24206893  0.52930278  0.80720377  1
  C  C2  1  0.74444276  0.60146752  0.43753378  1
  C  C3  1  0.25056153  0.76900088  0.32232010  1
  C  C4  1  0.74202150  0.22950603  0.68284468  1
  C  C5  1  0.25580291  0.41145236  0.56234727  1
  C  C6  1  0.24775641  0.04244722  0.80293533  1
  C  C7  1  0.75792031  0.47063685  0.19321792  1
  C  C8  1  0.23864497  0.65036177  0.06630063  1
  C  C9  1  0.73839400  0.08808679  0.44260907  1
  C  C10  1  0.25900588  0.28497607  0.31663649  1
  C  C11  1  0.26150018  0.89974612  0.55758473  1
  C  C12  1  0.76208715  0.34993833  0.93292589  1
  C  C13  1  0.75213798  0.95704927  0.19670241  1
  C  C14  1  0.24503444  0.16422879  0.06277689  1
  C  C15  1  0.75407930  0.83506378  0.93793062  1
  Ti  Ti16  1  0.49870960  0.06481262  0.62092225  1
  Ti  Ti17  1  0.00025534  0.74696423  0.50017885  1
  Ti  Ti18  1  0.50223328  0.93258557  0.37939338  1
  Ti  Ti19  1  0.49988108  0.56489357  0.62040314  1
  Ti  Ti20  1  0.99844553  0.62291554  0.25542922  1
  Ti  Ti21  1  0.49953062  0.43835890  0.37929983  1
  Ti  Ti22  1  0.00008295  0.50020936  0.99996282  1
  Ti  Ti23  1  0.00141558  0.37952684  0.74443195  1
  Zr  Zr24  1  0.00026776  0.25358508  0.49985865  1
  Zr  Zr25  1  0.00117849  0.12173065  0.25632073  1
  Zr  Zr26  1  0.50409996  0.31252298  0.12807050  1
  Zr  Zr27  1  0.99982781  0.99956635  0.99996032  1
  Zr  Zr28  1  0.49934854  0.19122663  0.87143608  1
  Zr  Zr29  1  0.49855117  0.80795895  0.12994385  1
  Zr  Zr30  1  0.99870320  0.87526494  0.74387402  1
  Zr  Zr31  1  0.49770382  0.68775252  0.87049462  1
