# generated using pymatgen
data_Al15VN16
_symmetry_space_group_name_H-M   'P 1'
_cell_length_a   8.17197755
_cell_length_b   8.17197755
_cell_length_c   4.06094375
_cell_angle_alpha   90.00000000
_cell_angle_beta   90.00000000
_cell_angle_gamma   90.00000000
_symmetry_Int_Tables_number   1
_chemical_formula_structural   Al15VN16
_chemical_formula_sum   'Al15 V1 N16'
_cell_volume   271.19476611
_cell_formula_units_Z   1
loop_
 _symmetry_equiv_pos_site_id
 _symmetry_equiv_pos_as_xyz
  1  'x, y, z'
loop_
 _atom_site_type_symbol
 _atom_site_label
 _atom_site_symmetry_multiplicity
 _atom_site_fract_x
 _atom_site_fract_y
 _atom_site_fract_z
 _atom_site_occupancy
  Al  Al0  1  0.00000000  0.00078999  0.00000000  1
  Al  Al1  1  0.00000000  0.25000000  0.50000000  1
  Al  Al2  1  0.25045576  0.00045576  0.50000000  1
  Al  Al3  1  0.24981224  0.25000000  0.00000000  1
  Al  Al4  1  0.00000000  0.49921001  -0.00000000  1
  Al  Al5  1  0.25045576  0.49954424  0.50000000  1
  Al  Al6  1  0.25078999  0.75000000  0.00000000  1
  Al  Al7  1  0.50000000  0.99981224  0.00000000  1
  Al  Al8  1  0.50000000  0.25000000  0.50000000  1
  Al  Al9  1  0.74954424  0.00045576  0.50000000  1
  Al  Al10  1  0.75018776  0.25000000  0.00000000  1
  Al  Al11  1  0.50000000  0.50018776  0.00000000  1
  Al  Al12  1  0.50000000  0.75000000  0.50000000  1
  Al  Al13  1  0.74954424  0.49954424  0.50000000  1
  Al  Al14  1  0.74921001  0.75000000  0.00000000  1
  N  N15  1  0.25074249  0.25000000  0.50000000  1
  N  N16  1  0.24945858  0.99945858  -0.00000000  1
  N  N17  1  0.00000000  0.25000000  0.00000000  1
  N  N18  1  0.00000000  0.00585309  0.50000000  1
  N  N19  1  0.25585309  0.75000000  0.50000000  1
  N  N20  1  0.24945858  0.50054142  0.00000000  1
  N  N21  1  0.00000000  0.75000000  0.00000000  1
  N  N22  1  0.00000000  0.49414691  0.50000000  1
  N  N23  1  0.74925751  0.25000000  0.50000000  1
  N  N24  1  0.75054142  0.99945858  0.00000000  1
  N  N25  1  0.50000000  0.25000000  0.00000000  1
  N  N26  1  0.50000000  0.00074249  0.50000000  1
  N  N27  1  0.74414691  0.75000000  0.50000000  1
  N  N28  1  0.75054142  0.50054142  -0.00000000  1
  N  N29  1  0.50000000  0.75000000  0.00000000  1
  N  N30  1  0.50000000  0.49925751  0.50000000  1
  V  V31  1  0.00000000  0.75000000  0.50000000  1
