# generated using pymatgen
data_Al15BN16
_symmetry_space_group_name_H-M   'P 1'
_cell_length_a   8.07224107
_cell_length_b   8.07224107
_cell_length_c   4.05754737
_cell_angle_alpha   90.00000000
_cell_angle_beta   90.00000000
_cell_angle_gamma   90.00000000
_symmetry_Int_Tables_number   1
_chemical_formula_structural   Al15BN16
_chemical_formula_sum   'Al15 B1 N16'
_cell_volume   264.39415211
_cell_formula_units_Z   1
loop_
 _symmetry_equiv_pos_site_id
 _symmetry_equiv_pos_as_xyz
  1  'x, y, z'
loop_
 _atom_site_type_symbol
 _atom_site_label
 _atom_site_symmetry_multiplicity
 _atom_site_fract_x
 _atom_site_fract_y
 _atom_site_fract_z
 _atom_site_occupancy
  Al  Al0  1  0.00000000  0.00101991  0.00000000  1
  Al  Al1  1  0.00000000  0.25000000  0.50000000  1
  Al  Al2  1  0.25341840  0.00341840  0.50000000  1
  Al  Al3  1  0.25669205  0.25000000  0.00000000  1
  Al  Al4  1  0.00000000  0.49898009  0.00000000  1
  Al  Al5  1  0.00000000  0.75000000  0.50000000  1
  Al  Al6  1  0.25341840  0.49658160  0.50000000  1
  Al  Al7  1  0.25101991  0.75000000  0.00000000  1
  Al  Al8  1  0.50000000  0.00669205  0.00000000  1
  Al  Al9  1  0.74658160  0.00341840  0.50000000  1
  Al  Al10  1  0.74330795  0.25000000  0.00000000  1
  Al  Al11  1  0.50000000  0.49330795  0.00000000  1
  Al  Al12  1  0.50000000  0.75000000  0.50000000  1
  Al  Al13  1  0.74658160  0.49658160  0.50000000  1
  Al  Al14  1  0.74898009  0.75000000  0.00000000  1
  N  N15  1  0.26387017  0.25000000  0.50000000  1
  N  N16  1  0.25006323  0.00006323  0.00000000  1
  N  N17  1  0.00000000  0.25000000  0.00000000  1
  N  N18  1  0.00000000  0.00252161  0.50000000  1
  N  N19  1  0.25252161  0.75000000  0.50000000  1
  N  N20  1  0.25006323  0.49993677  0.00000000  1
  N  N21  1  0.00000000  0.75000000  0.00000000  1
  N  N22  1  0.00000000  0.49747839  0.50000000  1
  N  N23  1  0.73612983  0.25000000  0.50000000  1
  N  N24  1  0.74993677  0.00006323  0.00000000  1
  N  N25  1  0.50000000  0.25000000  0.00000000  1
  N  N26  1  0.50000000  0.01387017  0.50000000  1
  N  N27  1  0.74747839  0.75000000  0.50000000  1
  N  N28  1  0.74993677  0.49993677  0.00000000  1
  N  N29  1  0.50000000  0.75000000  0.00000000  1
  N  N30  1  0.50000000  0.48612983  0.50000000  1
  B  B31  1  0.50000000  0.25000000  0.50000000  1
