# generated using pymatgen
data_HfTiC2
_symmetry_space_group_name_H-M   'P 1'
_cell_length_a   10.36210054
_cell_length_b   10.69017255
_cell_length_c   5.34886564
_cell_angle_alpha   99.60291197
_cell_angle_beta   99.61111712
_cell_angle_gamma   33.62832150
_symmetry_Int_Tables_number   1
_chemical_formula_structural   HfTiC2
_chemical_formula_sum   'Hf8 Ti8 C16'
_cell_volume   323.10744823
_cell_formula_units_Z   8
loop_
 _symmetry_equiv_pos_site_id
 _symmetry_equiv_pos_as_xyz
  1  'x, y, z'
loop_
 _atom_site_type_symbol
 _atom_site_label
 _atom_site_symmetry_multiplicity
 _atom_site_fract_x
 _atom_site_fract_y
 _atom_site_fract_z
 _atom_site_occupancy
  C  C0  1  0.18350488  0.19405349  0.12252498  1
  C  C1  1  0.68803930  0.18734379  0.12509426  1
  C  C2  1  0.30110427  0.31492735  0.86800405  1
  C  C3  1  0.42541356  0.44813931  0.62580947  1
  C  C4  1  0.82062716  0.31616609  0.88000906  1
  C  C5  1  0.18758842  0.68766042  0.12423686  1
  C  C6  1  0.56609022  0.56496539  0.38310170  1
  C  C7  1  0.94151474  0.43093550  0.62795199  1
  C  C8  1  0.69489214  0.68066533  0.11310219  1
  C  C9  1  0.06380939  0.55496152  0.37777796  1
  C  C10  1  0.31846047  0.81301560  0.86132714  1
  C  C11  1  0.43023862  0.94420668  0.63595990  1
  C  C12  1  0.81374896  0.80586345  0.87655064  1
  C  C13  1  0.55065207  0.06455114  0.36923684  1
  C  C14  1  0.94886935  0.92690166  0.62518318  1
  C  C15  1  0.06569972  0.06539855  0.38439486  1
  Hf  Hf16  1  0.74923312  0.74656921  0.50166365  1
  Hf  Hf17  1  0.87462240  0.87176865  0.25060291  1
  Hf  Hf18  1  0.00476399  0.99957060  0.00018750  1
  Hf  Hf19  1  0.37677887  0.87704201  0.24877229  1
  Hf  Hf20  1  0.75077463  0.25250894  0.50471724  1
  Hf  Hf21  1  0.62175307  0.12416199  0.74754971  1
  Hf  Hf22  1  0.37043635  0.37542538  0.24684493  1
  Hf  Hf23  1  0.50177034  0.50264265  0.00028339  1
  Ti  Ti24  1  0.25288836  0.75020152  0.50047032  1
  Ti  Ti25  1  0.12639124  0.12797586  0.75218470  1
  Ti  Ti26  1  0.49577785  0.00102317  0.99727682  1
  Ti  Ti27  1  0.24457621  0.25100722  0.49990085  1
  Ti  Ti28  1  0.87866617  0.37550400  0.25221061  1
  Ti  Ti29  1  0.99951170  0.49683716  0.99705046  1
  Ti  Ti30  1  0.12302313  0.62387355  0.75063392  1
  Ti  Ti31  1  0.62877933  0.62413286  0.74938563  1
