# generated using pymatgen
data_HfTiC2
_symmetry_space_group_name_H-M   'P 1'
_cell_length_a   11.13301190
_cell_length_b   11.13100441
_cell_length_c   5.56943741
_cell_angle_alpha   99.60291198
_cell_angle_beta   99.61111716
_cell_angle_gamma   33.62832153
_symmetry_Int_Tables_number   1
_chemical_formula_structural   HfTiC2
_chemical_formula_sum   'Hf8 Ti8 C16'
_cell_volume   376.36663854
_cell_formula_units_Z   8
loop_
 _symmetry_equiv_pos_site_id
 _symmetry_equiv_pos_as_xyz
  1  'x, y, z'
loop_
 _atom_site_type_symbol
 _atom_site_label
 _atom_site_symmetry_multiplicity
 _atom_site_fract_x
 _atom_site_fract_y
 _atom_site_fract_z
 _atom_site_occupancy
  C  C0  1  0.18339842  0.19382009  0.12187951  1
  C  C1  1  0.68776230  0.18745113  0.12487706  1
  C  C2  1  0.30452290  0.31330811  0.86894879  1
  C  C3  1  0.42861133  0.44617327  0.62521037  1
  C  C4  1  0.81697244  0.31742508  0.87860052  1
  C  C5  1  0.18736054  0.68751718  0.12404557  1
  C  C6  1  0.56466826  0.56525661  0.38253569  1
  C  C7  1  0.94218233  0.43097688  0.62791170  1
  C  C8  1  0.69238742  0.68223125  0.11583197  1
  C  C9  1  0.06462463  0.55535698  0.37758937  1
  C  C10  1  0.31514778  0.81449119  0.86519456  1
  C  C11  1  0.43251094  0.94242004  0.63419536  1
  C  C12  1  0.81460076  0.80570050  0.87544774  1
  C  C13  1  0.55471865  0.06304926  0.37024031  1
  C  C14  1  0.94620183  0.92892313  0.62566462  1
  C  C15  1  0.06473740  0.06555495  0.38225971  1
  Hf  Hf16  1  0.75092718  0.74559666  0.50072015  1
  Hf  Hf17  1  0.87649218  0.87047737  0.24900793  1
  Hf  Hf18  1  0.00345996  0.99989161  0.00025026  1
  Hf  Hf19  1  0.37515603  0.87797882  0.25093195  1
  Hf  Hf20  1  0.75186423  0.25210868  0.50304767  1
  Hf  Hf21  1  0.62217297  0.12425080  0.74843850  1
  Hf  Hf22  1  0.37060887  0.37568789  0.24813325  1
  Hf  Hf23  1  0.49965511  0.50346411  0.00062046  1
  Ti  Ti24  1  0.25124757  0.75108444  0.50315573  1
  Ti  Ti25  1  0.12584304  0.12805693  0.75034588  1
  Ti  Ti26  1  0.49536935  0.00107375  0.99706878  1
  Ti  Ti27  1  0.24622715  0.25141605  0.50141665  1
  Ti  Ti28  1  0.87840389  0.37532219  0.24964111  1
  Ti  Ti29  1  0.00032614  0.49591001  0.99634774  1
  Ti  Ti30  1  0.12456285  0.62304292  0.74905251  1
  Ti  Ti31  1  0.62727553  0.62498216  0.75138857  1
