# generated using pymatgen
data_HfTiC2
_symmetry_space_group_name_H-M   'P 1'
_cell_length_a   11.24323974
_cell_length_b   11.24121237
_cell_length_c   5.62458036
_cell_angle_alpha   99.60291198
_cell_angle_beta   99.61111716
_cell_angle_gamma   33.62832153
_symmetry_Int_Tables_number   1
_chemical_formula_structural   HfTiC2
_chemical_formula_sum   'Hf8 Ti8 C16'
_cell_volume   387.65689605
_cell_formula_units_Z   8
loop_
 _symmetry_equiv_pos_site_id
 _symmetry_equiv_pos_as_xyz
  1  'x, y, z'
loop_
 _atom_site_type_symbol
 _atom_site_label
 _atom_site_symmetry_multiplicity
 _atom_site_fract_x
 _atom_site_fract_y
 _atom_site_fract_z
 _atom_site_occupancy
  C  C0  1  0.18349808  0.19353788  0.12165445  1
  C  C1  1  0.68776163  0.18744397  0.12478975  1
  C  C2  1  0.30494444  0.31313495  0.86923138  1
  C  C3  1  0.42904776  0.44574885  0.62532189  1
  C  C4  1  0.81666008  0.31730483  0.87819856  1
  C  C5  1  0.18727752  0.68743351  0.12390094  1
  C  C6  1  0.56443753  0.56517137  0.38231731  1
  C  C7  1  0.94225627  0.43126255  0.62795330  1
  C  C8  1  0.69215786  0.68230639  0.11636791  1
  C  C9  1  0.06455900  0.55576705  0.37758899  1
  C  C10  1  0.31502578  0.81415674  0.86599288  1
  C  C11  1  0.43264893  0.94227375  0.63388572  1
  C  C12  1  0.81447316  0.80607307  0.87523073  1
  C  C13  1  0.55518146  0.06308114  0.37073848  1
  C  C14  1  0.94586938  0.92935835  0.62561183  1
  C  C15  1  0.06461513  0.06554513  0.38175751  1
  Hf  Hf16  1  0.75108377  0.74568834  0.50085511  1
  Hf  Hf17  1  0.87666336  0.87048043  0.24877143  1
  Hf  Hf18  1  0.00339136  0.99970456  0.00006914  1
  Hf  Hf19  1  0.37505049  0.87786338  0.25129611  1
  Hf  Hf20  1  0.75196750  0.25219556  0.50269495  1
  Hf  Hf21  1  0.62221994  0.12429349  0.74860565  1
  Hf  Hf22  1  0.37058108  0.37577081  0.24841571  1
  Hf  Hf23  1  0.49945040  0.50334183  0.00067835  1
  Ti  Ti24  1  0.25125280  0.75093650  0.50396351  1
  Ti  Ti25  1  0.12581938  0.12816526  0.74992056  1
  Ti  Ti26  1  0.49512472  0.00121622  0.99694640  1
  Ti  Ti27  1  0.24624852  0.25175939  0.50174022  1
  Ti  Ti28  1  0.87849385  0.37526387  0.24883063  1
  Ti  Ti29  1  0.00039044  0.49574450  0.99596583  1
  Ti  Ti30  1  0.12465415  0.62316346  0.74898490  1
  Ti  Ti31  1  0.62719422  0.62481289  0.75171987  1
