# generated using pymatgen
data_HfTiC2
_symmetry_space_group_name_H-M   'P 1'
_cell_length_a   11.46369542
_cell_length_b   11.46162830
_cell_length_c   5.73486625
_cell_angle_alpha   99.60291203
_cell_angle_beta   99.61111717
_cell_angle_gamma   33.62832156
_symmetry_Int_Tables_number   1
_chemical_formula_structural   HfTiC2
_chemical_formula_sum   'Hf8 Ti8 C16'
_cell_volume   410.91029014
_cell_formula_units_Z   8
loop_
 _symmetry_equiv_pos_site_id
 _symmetry_equiv_pos_as_xyz
  1  'x, y, z'
loop_
 _atom_site_type_symbol
 _atom_site_label
 _atom_site_symmetry_multiplicity
 _atom_site_fract_x
 _atom_site_fract_y
 _atom_site_fract_z
 _atom_site_occupancy
  C  C0  1  0.18350906  0.19307254  0.12044984  1
  C  C1  1  0.68785483  0.18738694  0.12461203  1
  C  C2  1  0.30600931  0.31241870  0.86970188  1
  C  C3  1  0.42963635  0.44520712  0.62564364  1
  C  C4  1  0.81594178  0.31725863  0.87727794  1
  C  C5  1  0.18700096  0.68713214  0.12318052  1
  C  C6  1  0.56359625  0.56523636  0.38218573  1
  C  C7  1  0.94301932  0.43162971  0.62844649  1
  C  C8  1  0.69181002  0.68202314  0.11747464  1
  C  C9  1  0.06459615  0.55660523  0.37820322  1
  C  C10  1  0.31497748  0.81295312  0.86755634  1
  C  C11  1  0.43279373  0.94203661  0.63350494  1
  C  C12  1  0.81416274  0.80696172  0.87457918  1
  C  C13  1  0.55610772  0.06320990  0.37208380  1
  C  C14  1  0.94550548  0.93011695  0.62561827  1
  C  C15  1  0.06418735  0.06594738  0.38058215  1
  Hf  Hf16  1  0.75153183  0.74587171  0.50131950  1
  Hf  Hf17  1  0.87697610  0.87040939  0.24812597  1
  Hf  Hf18  1  0.00333371  0.99935186  0.99980605  1
  Hf  Hf19  1  0.37480288  0.87752418  0.25217689  1
  Hf  Hf20  1  0.75235862  0.25238278  0.50198485  1
  Hf  Hf21  1  0.62245019  0.12423294  0.74886981  1
  Hf  Hf22  1  0.37044791  0.37587004  0.24909124  1
  Hf  Hf23  1  0.49883681  0.50315499  0.00111233  1
  Ti  Ti24  1  0.25150854  0.75028537  0.50655334  1
  Ti  Ti25  1  0.12562879  0.12879942  0.74850272  1
  Ti  Ti26  1  0.49405321  0.00185232  0.99632712  1
  Ti  Ti27  1  0.24627310  0.25288626  0.50315181  1
  Ti  Ti28  1  0.87889403  0.37512405  0.24607010  1
  Ti  Ti29  1  0.00067798  0.49500429  0.99437913  1
  Ti  Ti30  1  0.12486036  0.62364707  0.74892557  1
  Ti  Ti31  1  0.62665738  0.62440715  0.75250296  1
