# generated using pymatgen
data_HfTiC2
_symmetry_space_group_name_H-M   'P 1'
_cell_length_a   11.57392326
_cell_length_b   11.57183627
_cell_length_c   5.79000920
_cell_angle_alpha   99.60291203
_cell_angle_beta   99.61111718
_cell_angle_gamma   33.62832153
_symmetry_Int_Tables_number   1
_chemical_formula_structural   HfTiC2
_chemical_formula_sum   'Hf8 Ti8 C16'
_cell_volume   422.87780968
_cell_formula_units_Z   8
loop_
 _symmetry_equiv_pos_site_id
 _symmetry_equiv_pos_as_xyz
  1  'x, y, z'
loop_
 _atom_site_type_symbol
 _atom_site_label
 _atom_site_symmetry_multiplicity
 _atom_site_fract_x
 _atom_site_fract_y
 _atom_site_fract_z
 _atom_site_occupancy
  C  C0  1  0.18323109  0.19303189  0.11905122  1
  C  C1  1  0.68801900  0.18726527  0.12461202  1
  C  C2  1  0.30660023  0.31170543  0.86978621  1
  C  C3  1  0.42967602  0.44527227  0.62596755  1
  C  C4  1  0.81569618  0.31734075  0.87698111  1
  C  C5  1  0.18679833  0.68687378  0.12246179  1
  C  C6  1  0.56260101  0.56559763  0.38265322  1
  C  C7  1  0.94407254  0.43151533  0.62906574  1
  C  C8  1  0.69159977  0.68170981  0.11789227  1
  C  C9  1  0.06479200  0.55691240  0.37876915  1
  C  C10  1  0.31545417  0.81176126  0.86823903  1
  C  C11  1  0.43283769  0.94187584  0.63353318  1
  C  C12  1  0.81387383  0.80747113  0.87421595  1
  C  C13  1  0.55644049  0.06338107  0.37288919  1
  C  C14  1  0.94548808  0.93027449  0.62594306  1
  C  C15  1  0.06371273  0.06673296  0.37987442  1
  Hf  Hf16  1  0.75178934  0.74588900  0.50153732  1
  Hf  Hf17  1  0.87714250  0.87024393  0.24774074  1
  Hf  Hf18  1  0.00335863  0.99916674  0.99986887  1
  Hf  Hf19  1  0.37475415  0.87724706  0.25273577  1
  Hf  Hf20  1  0.75277337  0.25238590  0.50185013  1
  Hf  Hf21  1  0.62256131  0.12415091  0.74902271  1
  Hf  Hf22  1  0.37026660  0.37590007  0.24940097  1
  Hf  Hf23  1  0.49845698  0.50302643  0.00172335  1
  Ti  Ti24  1  0.25238305  0.74922222  0.50852940  1
  Ti  Ti25  1  0.12534288  0.12967678  0.74735036  1
  Ti  Ti26  1  0.49315865  0.00238250  0.99545483  1
  Ti  Ti27  1  0.24619862  0.25391097  0.50421261  1
  Ti  Ti28  1  0.87961321  0.37468058  0.24365344  1
  Ti  Ti29  1  0.00082705  0.49442312  0.99272629  1
  Ti  Ti30  1  0.12480228  0.62434159  0.74892266  1
  Ti  Ti31  1  0.62567818  0.62463090  0.75333541  1
