# generated using pymatgen
data_Ti5C3
_symmetry_space_group_name_H-M   'P 1'
_cell_length_a   12.25329281
_cell_length_b   12.25329281
_cell_length_c   12.25329281
_cell_angle_alpha   14.50201304
_cell_angle_beta   14.50201304
_cell_angle_gamma   14.50201299
_symmetry_Int_Tables_number   1
_chemical_formula_structural   Ti5C3
_chemical_formula_sum   'Ti5 C3'
_cell_volume   100.44273762
_cell_formula_units_Z   1
loop_
 _symmetry_equiv_pos_site_id
 _symmetry_equiv_pos_as_xyz
  1  'x, y, z'
loop_
 _atom_site_type_symbol
 _atom_site_label
 _atom_site_symmetry_multiplicity
 _atom_site_fract_x
 _atom_site_fract_y
 _atom_site_fract_z
 _atom_site_occupancy
  C  C0  1  0.29789357  0.29789357  0.29789357  1
  C  C1  1  0.70210643  0.70210643  0.70210643  1
  C  C2  1  0.50000000  0.50000000  0.50000000  1
  Ti  Ti3  1  0.19780221  0.19780221  0.19780221  1
  Ti  Ti4  1  0.80219779  0.80219779  0.80219779  1
  Ti  Ti5  1  0.60192040  0.60192040  0.60192040  1
  Ti  Ti6  1  0.39807960  0.39807960  0.39807960  1
  Ti  Ti7  1  0.00000000  0.00000000  0.00000000  1
