# generated using pymatgen
data_Ti3NiC3
_symmetry_space_group_name_H-M   'P 1'
_cell_length_a   8.00586437
_cell_length_b   8.00586437
_cell_length_c   9.36908131
_cell_angle_alpha   96.17846649
_cell_angle_beta   96.17846648
_cell_angle_gamma   31.04890807
_symmetry_Int_Tables_number   1
_chemical_formula_structural   Ti3NiC3
_chemical_formula_sum   'Ti12 Ni4 C12'
_cell_volume   307.78168051
_cell_formula_units_Z   4
loop_
 _symmetry_equiv_pos_site_id
 _symmetry_equiv_pos_as_xyz
  1  'x, y, z'
loop_
 _atom_site_type_symbol
 _atom_site_label
 _atom_site_symmetry_multiplicity
 _atom_site_fract_x
 _atom_site_fract_y
 _atom_site_fract_z
 _atom_site_occupancy
  C  C0  1  0.56533357  0.56533357  0.30599339  1
  C  C1  1  0.37028704  0.37028704  0.35484838  1
  C  C2  1  0.18834482  0.18834482  0.42830492  1
  C  C3  1  0.99505929  0.99505929  0.50209139  1
  C  C4  1  0.62492598  0.62492598  0.62159377  1
  C  C5  1  0.43515081  0.43515081  0.68345451  1
  C  C6  1  0.25228835  0.25228835  0.74828663  1
  C  C7  1  0.06901105  0.06901105  0.82261231  1
  C  C8  1  0.87282164  0.87282164  0.88177348  1
  C  C9  1  0.50222439  0.50222439  0.00045860  1
  C  C10  1  0.30623718  0.30623718  0.07892597  1
  C  C11  1  0.93605448  0.93605448  0.19123295  1
  Ni  Ni12  1  0.25263913  0.25263913  0.26023474  1
  Ni  Ni13  1  0.88588123  0.88588123  0.38125959  1
  Ni  Ni14  1  0.94808185  0.94808185  0.69152526  1
  Ni  Ni15  1  0.44089382  0.44089382  0.18564262  1
  Ti  Ti16  1  0.05712487  0.05712487  0.31768832  1
  Ti  Ti17  1  0.68179348  0.68179348  0.42949185  1
  Ti  Ti18  1  0.49477385  0.49477385  0.49714753  1
  Ti  Ti19  1  0.31386236  0.31386236  0.55112334  1
  Ti  Ti20  1  0.12809254  0.12809254  0.62586564  1
  Ti  Ti21  1  0.75252280  0.75252280  0.74887715  1
  Ti  Ti22  1  0.55500646  0.55500646  0.80433577  1
  Ti  Ti23  1  0.37289755  0.37289755  0.87401113  1
  Ti  Ti24  1  0.19204809  0.19204809  0.94118222  1
  Ti  Ti25  1  0.99414125  0.99414125  0.99488718  1
  Ti  Ti26  1  0.81883018  0.81883018  0.08126458  1
  Ti  Ti27  1  0.61867202  0.61867202  0.12088677  1
