# generated using pymatgen
data_SiW3C4
_symmetry_space_group_name_H-M   'P 1'
_cell_length_a   8.67599372
_cell_length_b   8.74245738
_cell_length_c   4.30845053
_cell_angle_alpha   90.00000000
_cell_angle_beta   90.00000000
_cell_angle_gamma   90.47394471
_symmetry_Int_Tables_number   1
_chemical_formula_structural   SiW3C4
_chemical_formula_sum   'Si4 W12 C16'
_cell_volume   326.78266104
_cell_formula_units_Z   4
loop_
 _symmetry_equiv_pos_site_id
 _symmetry_equiv_pos_as_xyz
  1  'x, y, z'
loop_
 _atom_site_type_symbol
 _atom_site_label
 _atom_site_symmetry_multiplicity
 _atom_site_fract_x
 _atom_site_fract_y
 _atom_site_fract_z
 _atom_site_occupancy
  W  W0  1  0.00469961  0.00561898  0.00000000  1
  W  W1  1  0.01054500  0.23806483  0.50000000  1
  W  W2  1  0.24427536  -0.00097342  0.50000000  1
  W  W3  1  0.24089222  0.23448407  0.00000000  1
  W  W4  1  0.99098809  0.76608961  0.50000000  1
  W  W5  1  0.26475294  0.48955171  0.50000000  1
  W  W6  1  0.49316348  -0.00621342  0.00000000  1
  W  W7  1  0.49994740  0.27500011  0.50000000  1
  W  W8  1  0.74011507  0.25527285  0.00000000  1
  W  W9  1  0.50414729  0.50464788  0.00000000  1
  W  W10  1  0.50001485  0.73666609  0.50000000  1
  W  W11  1  0.74217750  0.75082646  0.00000000  1
  C  C12  1  0.24699469  0.96533635  0.00000000  1
  C  C13  1  0.25803436  0.24472259  0.50000000  1
  C  C14  1  0.96412718  0.00403088  0.50000000  1
  C  C15  1  -0.00240526  0.27869235  0.00000000  1
  C  C16  1  0.23412469  0.50927100  0.00000000  1
  C  C17  1  0.24693129  0.74537384  0.50000000  1
  C  C18  1  0.00323392  0.50058001  0.50000000  1
  C  C19  1  0.00562790  0.74417279  0.00000000  1
  C  C20  1  0.74798824  0.00344096  0.00000000  1
  C  C21  1  0.75180392  0.24177786  0.50000000  1
  C  C22  1  0.50616510  0.00548730  0.50000000  1
  C  C23  1  0.49181784  0.24854801  0.00000000  1
  C  C24  1  0.76569370  0.50278570  0.00000000  1
  C  C25  1  0.74391296  0.77699703  0.50000000  1
  C  C26  1  0.56661069  0.50643376  0.50000000  1
  C  C27  1  0.47454892  0.74839659  0.00000000  1
  Si  Si28  1  0.00217899  0.50800916  0.00000000  1
  Si  Si29  1  0.23839166  0.73659763  0.00000000  1
  Si  Si30  1  0.73498810  0.00613949  0.50000000  1
  Si  Si31  1  0.78351231  0.47417095  0.50000000  1
