# generated using pymatgen
data_ReW3C4
_symmetry_space_group_name_H-M   'P 1'
_cell_length_a   11.45606699
_cell_length_b   7.85593867
_cell_length_c   4.12158932
_cell_angle_alpha   90.00000000
_cell_angle_beta   90.00000000
_cell_angle_gamma   72.65017429
_symmetry_Int_Tables_number   1
_chemical_formula_structural   ReW3C4
_chemical_formula_sum   'Re4 W12 C16'
_cell_volume   354.05857096
_cell_formula_units_Z   4
loop_
 _symmetry_equiv_pos_site_id
 _symmetry_equiv_pos_as_xyz
  1  'x, y, z'
loop_
 _atom_site_type_symbol
 _atom_site_label
 _atom_site_symmetry_multiplicity
 _atom_site_fract_x
 _atom_site_fract_y
 _atom_site_fract_z
 _atom_site_occupancy
  W  W0  1  0.06672262  0.97154467  0.00000000  1
  W  W1  1  0.99424246  0.24796728  0.50000000  1
  W  W2  1  0.25036372  0.00363005  0.50000000  1
  W  W3  1  0.07769810  0.45927619  0.00000000  1
  W  W4  1  0.00242081  0.74413602  0.50000000  1
  W  W5  1  0.25071731  0.49420931  0.50000000  1
  W  W6  1  0.31901445  0.72054384  0.00000000  1
  W  W7  1  0.57644558  0.96818258  0.00000000  1
  W  W8  1  0.56938495  0.46989997  0.00000000  1
  W  W9  1  0.50085798  0.74980733  0.50000000  1
  W  W10  1  0.74619481  0.49786385  0.50000000  1
  W  W11  1  0.82511309  0.71660650  0.00000000  1
  Re  Re12  1  0.32811263  0.21594153  0.00000000  1
  Re  Re13  1  0.49965464  0.24631468  0.50000000  1
  Re  Re14  1  0.75273436  0.99917822  0.50000000  1
  Re  Re15  1  0.81848892  0.22571886  0.00000000  1
  C  C16  1  0.24221768  0.00884585  0.00000000  1
  C  C17  1  0.16328455  0.29910154  0.50000000  1
  C  C18  1  0.94102481  0.01950446  0.50000000  1
  C  C19  1  0.99184618  0.25290851  0.00000000  1
  C  C20  1  0.25621042  0.49071647  0.00000000  1
  C  C21  1  0.18936176  0.77721149  0.50000000  1
  C  C22  1  0.92045379  0.54142355  0.50000000  1
  C  C23  1  0.00631637  0.73888160  0.00000000  1
  C  C24  1  0.75498791  0.99882846  0.00000000  1
  C  C25  1  0.67468144  0.28313583  0.50000000  1
  C  C26  1  0.42892024  0.03485756  0.50000000  1
  C  C27  1  0.50280200  0.24488722  0.00000000  1
  C  C28  1  0.74397290  0.50433175  0.00000000  1
  C  C29  1  0.67828351  0.78964165  0.50000000  1
  C  C30  1  0.43207044  0.53128736  0.50000000  1
  C  C31  1  0.49539952  0.75361581  0.00000000  1
