# generated using pymatgen
data_OsW3C4
_symmetry_space_group_name_H-M   'P 1'
_cell_length_a   8.54307815
_cell_length_b   10.19406440
_cell_length_c   4.18805448
_cell_angle_alpha   90.00000000
_cell_angle_beta   90.00000000
_cell_angle_gamma   90.45632022
_symmetry_Int_Tables_number   1
_chemical_formula_structural   OsW3C4
_chemical_formula_sum   'Os4 W12 C16'
_cell_volume   364.72060612
_cell_formula_units_Z   4
loop_
 _symmetry_equiv_pos_site_id
 _symmetry_equiv_pos_as_xyz
  1  'x, y, z'
loop_
 _atom_site_type_symbol
 _atom_site_label
 _atom_site_symmetry_multiplicity
 _atom_site_fract_x
 _atom_site_fract_y
 _atom_site_fract_z
 _atom_site_occupancy
  Os  Os0  1  0.05316417  0.04777631  0.00000000  1
  Os  Os1  1  0.91903486  0.67526940  0.50000000  1
  Os  Os2  1  0.20612231  0.70644948  0.00000000  1
  Os  Os3  1  0.53159068  0.81150851  0.50000000  1
  W  W4  1  0.02396104  0.23452609  0.50000000  1
  W  W5  1  0.22726680  0.92083813  0.50000000  1
  W  W6  1  0.25198564  0.30624266  0.00000000  1
  W  W7  1  0.99287531  0.49407568  0.00000000  1
  W  W8  1  0.23585061  0.51995185  0.50000000  1
  W  W9  1  0.45007202  0.99281645  0.00000000  1
  W  W10  1  0.49488701  0.27060371  0.50000000  1
  W  W11  1  0.73065604  0.03320572  0.50000000  1
  W  W12  1  0.71889412  0.23916372  0.00000000  1
  W  W13  1  0.53665193  0.55718597  0.00000000  1
  W  W14  1  0.74710365  0.44294855  0.50000000  1
  W  W15  1  0.76771835  0.82551520  0.00000000  1
  C  C16  1  0.22641157  0.91121348  0.00000000  1
  C  C17  1  0.25448246  0.29689743  0.50000000  1
  C  C18  1  0.99568364  0.03502174  0.50000000  1
  C  C19  1  0.00745475  0.25772569  0.00000000  1
  C  C20  1  0.29548964  0.51053150  0.00000000  1
  C  C21  1  0.29866810  0.72773367  0.50000000  1
  C  C22  1  0.99824896  0.47081935  0.50000000  1
  C  C23  1  0.97050894  0.70452120  0.00000000  1
  C  C24  1  0.80445933  0.03426934  0.00000000  1
  C  C25  1  0.75793334  0.23925527  0.50000000  1
  C  C26  1  0.45224677  0.01121784  0.50000000  1
  C  C27  1  0.47306228  0.20259879  0.00000000  1
  C  C28  1  0.74972188  0.45353994  0.00000000  1
  C  C29  1  0.78607790  0.83486630  0.50000000  1
  C  C30  1  0.50368026  0.48016073  0.50000000  1
  C  C31  1  0.53803560  0.75155028  0.00000000  1
