# generated using pymatgen
data_NbW3C4
_symmetry_space_group_name_H-M   'P 1'
_cell_length_a   8.89555068
_cell_length_b   8.75850506
_cell_length_c   4.39397231
_cell_angle_alpha   90.00000000
_cell_angle_beta   90.00000000
_cell_angle_gamma   89.98316826
_symmetry_Int_Tables_number   1
_chemical_formula_structural   NbW3C4
_chemical_formula_sum   'Nb4 W12 C16'
_cell_volume   342.34195024
_cell_formula_units_Z   4
loop_
 _symmetry_equiv_pos_site_id
 _symmetry_equiv_pos_as_xyz
  1  'x, y, z'
loop_
 _atom_site_type_symbol
 _atom_site_label
 _atom_site_symmetry_multiplicity
 _atom_site_fract_x
 _atom_site_fract_y
 _atom_site_fract_z
 _atom_site_occupancy
  W  W0  1  0.01370485  0.99853598  0.00000000  1
  W  W1  1  0.24029513  0.99695993  0.50000000  1
  W  W2  1  0.24603750  0.24566352  0.00000000  1
  W  W3  1  0.01129451  0.74869649  0.50000000  1
  W  W4  1  0.24827064  0.50376170  0.50000000  1
  W  W5  1  0.23295587  0.75530211  0.00000000  1
  W  W6  1  0.51458567  0.99405180  0.00000000  1
  W  W7  1  0.50071941  0.24524446  0.50000000  1
  W  W8  1  0.74303622  0.24987336  0.00000000  1
  W  W9  1  0.50303007  0.50721132  0.00000000  1
  W  W10  1  0.51359822  0.75335031  0.50000000  1
  W  W11  1  0.73412874  0.74941108  0.00000000  1
  Nb  Nb12  1  0.00211807  0.25040518  0.50000000  1
  Nb  Nb13  1  0.00184788  0.50118296  0.00000000  1
  Nb  Nb14  1  0.74769124  0.99936274  0.50000000  1
  Nb  Nb15  1  0.74613828  0.50086742  0.50000000  1
  C  C16  1  0.26218967  0.00044862  0.00000000  1
  C  C17  1  0.25332285  0.25020991  0.50000000  1
  C  C18  1  0.99883107  0.99798950  0.50000000  1
  C  C19  1  0.99680881  0.24707576  0.00000000  1
  C  C20  1  0.25331627  0.50044379  0.00000000  1
  C  C21  1  0.26017364  0.75044937  0.50000000  1
  C  C22  1  0.00043818  0.50207941  0.50000000  1
  C  C23  1  0.98632292  0.75278370  0.00000000  1
  C  C24  1  0.76037014  0.99959978  0.00000000  1
  C  C25  1  0.74823494  0.25002778  0.50000000  1
  C  C26  1  0.49485900  -0.00026821  0.50000000  1
  C  C27  1  0.49604109  0.25017270  0.00000000  1
  C  C28  1  0.74845429  0.49997950  0.00000000  1
  C  C29  1  0.76024997  0.74970638  0.50000000  1
  C  C30  1  0.49572446  0.49899061  0.50000000  1
  C  C31  1  0.48521041  0.75043101  0.00000000  1
