# generated using pymatgen
data_MnW3C4
_symmetry_space_group_name_H-M   'P 1'
_cell_length_a   8.52877523
_cell_length_b   8.82631391
_cell_length_c   4.26611749
_cell_angle_alpha   90.00000000
_cell_angle_beta   90.00000000
_cell_angle_gamma   86.08337273
_symmetry_Int_Tables_number   1
_chemical_formula_structural   MnW3C4
_chemical_formula_sum   'Mn4 W12 C16'
_cell_volume   320.39325773
_cell_formula_units_Z   4
loop_
 _symmetry_equiv_pos_site_id
 _symmetry_equiv_pos_as_xyz
  1  'x, y, z'
loop_
 _atom_site_type_symbol
 _atom_site_label
 _atom_site_symmetry_multiplicity
 _atom_site_fract_x
 _atom_site_fract_y
 _atom_site_fract_z
 _atom_site_occupancy
  W  W0  1  0.00913149  0.97626688  0.00000000  1
  W  W1  1  0.99344839  0.25884150  0.50000000  1
  W  W2  1  0.26187843  0.99127248  0.50000000  1
  W  W3  1  0.25049832  0.25865338  0.00000000  1
  W  W4  1  0.98051935  0.47455657  0.00000000  1
  W  W5  1  0.21155159  0.51848887  0.50000000  1
  W  W6  1  0.50825468  0.01170694  0.00000000  1
  W  W7  1  0.76007894  0.99392932  0.50000000  1
  W  W8  1  0.73900564  0.24620190  0.00000000  1
  W  W9  1  0.49450949  0.50742591  0.00000000  1
  W  W10  1  0.53659492  0.72886429  0.50000000  1
  W  W11  1  0.78271934  0.75352954  0.00000000  1
  C  C12  1  0.25625804  0.01113382  0.00000000  1
  C  C13  1  0.25010331  0.26462755  0.50000000  1
  C  C14  1  0.00963622  0.00997684  0.50000000  1
  C  C15  1  0.99636801  0.23061809  0.00000000  1
  C  C16  1  0.17552438  0.60311892  0.00000000  1
  C  C17  1  0.25995486  0.75528179  0.50000000  1
  C  C18  1  0.94111263  0.54649968  0.50000000  1
  C  C19  1  0.04876736  0.72861957  0.00000000  1
  C  C20  1  0.75810435  0.99711072  0.00000000  1
  C  C21  1  0.73076708  0.23436793  0.50000000  1
  C  C22  1  0.51111568  0.98641567  0.50000000  1
  C  C23  1  0.49396932  0.25804367  0.00000000  1
  C  C24  1  0.73481575  0.49341613  0.00000000  1
  C  C25  1  0.80369423  0.67708256  0.50000000  1
  C  C26  1  0.47412830  0.49388099  0.50000000  1
  C  C27  1  0.52766837  0.75512006  0.00000000  1
  Mn  Mn28  1  0.00685152  0.78139814  0.50000000  1
  Mn  Mn29  1  0.30064945  0.78327002  0.00000000  1
  Mn  Mn30  1  0.47736149  0.21387439  0.50000000  1
  Mn  Mn31  1  0.71495905  0.45640596  0.50000000  1
