# generated using pymatgen
data_CrW3C4
_symmetry_space_group_name_H-M   'P 1'
_cell_length_a   8.60232105
_cell_length_b   8.78375945
_cell_length_c   4.29558879
_cell_angle_alpha   90.00000000
_cell_angle_beta   90.00000000
_cell_angle_gamma   89.63805838
_symmetry_Int_Tables_number   1
_chemical_formula_structural   CrW3C4
_chemical_formula_sum   'Cr4 W12 C16'
_cell_volume   324.57130049
_cell_formula_units_Z   4
loop_
 _symmetry_equiv_pos_site_id
 _symmetry_equiv_pos_as_xyz
  1  'x, y, z'
loop_
 _atom_site_type_symbol
 _atom_site_label
 _atom_site_symmetry_multiplicity
 _atom_site_fract_x
 _atom_site_fract_y
 _atom_site_fract_z
 _atom_site_occupancy
  W  W0  1  0.99788676  0.01088838  0.00000000  1
  W  W1  1  0.25262819  0.01775164  0.50000000  1
  W  W2  1  0.23809072  0.25774068  0.00000000  1
  W  W3  1  0.00211324  0.73911162  0.50000000  1
  W  W4  1  0.25462935  0.72940839  0.00000000  1
  W  W5  1  0.49697688  0.02195455  0.00000000  1
  W  W6  1  0.49194868  0.25223364  0.50000000  1
  W  W7  1  0.74537065  0.02059161  0.50000000  1
  W  W8  1  0.50805132  0.49776636  0.00000000  1
  W  W9  1  0.50302312  0.72804545  0.50000000  1
  W  W10  1  0.76190928  0.49225932  0.50000000  1
  W  W11  1  0.74737181  0.73224836  0.00000000  1
  Cr  Cr12  1  0.00336504  0.23541749  0.50000000  1
  Cr  Cr13  1  0.99663496  0.51458251  0.00000000  1
  Cr  Cr14  1  0.21805078  0.51660194  0.50000000  1
  Cr  Cr15  1  0.78194922  0.23339806  0.00000000  1
  C  C16  1  0.24864715  0.99748708  0.00000000  1
  C  C17  1  0.23985663  0.26729856  0.50000000  1
  C  C18  1  -0.00012622  0.99606757  0.50000000  1
  C  C19  1  0.99819031  0.26328877  0.00000000  1
  C  C20  1  0.24437492  0.49653192  0.00000000  1
  C  C21  1  0.25135052  0.75301855  0.50000000  1
  C  C22  1  0.00180969  0.48671123  0.50000000  1
  C  C23  1  0.00012622  0.75393243  0.00000000  1
  C  C24  1  0.74864948  0.99698145  0.00000000  1
  C  C25  1  0.75562508  0.25346808  0.50000000  1
  C  C26  1  0.49943913  0.99131390  0.50000000  1
  C  C27  1  0.51111693  0.25622316  0.00000000  1
  C  C28  1  0.76014337  0.48270144  0.00000000  1
  C  C29  1  0.75135285  0.75251292  0.50000000  1
  C  C30  1  0.48888307  0.49377684  0.50000000  1
  C  C31  1  0.50056087  0.75868610  0.00000000  1
