# generated using pymatgen
data_NiW3C4
_symmetry_space_group_name_H-M   'P 1'
_cell_length_a   8.66707058
_cell_length_b   8.76124843
_cell_length_c   4.28681411
_cell_angle_alpha   90.00000000
_cell_angle_beta   90.00000000
_cell_angle_gamma   90.00000000
_symmetry_Int_Tables_number   1
_chemical_formula_structural   NiW3C4
_chemical_formula_sum   'Ni4 W12 C16'
_cell_volume   325.51647950
_cell_formula_units_Z   4
loop_
 _symmetry_equiv_pos_site_id
 _symmetry_equiv_pos_as_xyz
  1  'x, y, z'
loop_
 _atom_site_type_symbol
 _atom_site_label
 _atom_site_symmetry_multiplicity
 _atom_site_fract_x
 _atom_site_fract_y
 _atom_site_fract_z
 _atom_site_occupancy
  W  W0  1  0.00000000  0.99183993  -0.00000000  1
  W  W1  1  0.00000000  0.25985096  0.50000000  1
  W  W2  1  0.25000000  0.00119235  0.50000000  1
  W  W3  1  -0.00000000  0.74880765  0.50000000  1
  W  W4  1  0.25000000  0.49014904  0.50000000  1
  W  W5  1  0.25000000  0.75816007  -0.00000000  1
  W  W6  1  0.50000000  0.99183993  -0.00000000  1
  W  W7  1  0.50000000  0.25985096  0.50000000  1
  W  W8  1  0.75000000  0.00119235  0.50000000  1
  W  W9  1  0.50000000  0.74880765  0.50000000  1
  W  W10  1  0.75000000  0.49014904  0.50000000  1
  W  W11  1  0.75000000  0.75816007  -0.00000000  1
  Ni  Ni12  1  0.25000000  0.27676286  0.00000000  1
  Ni  Ni13  1  0.00000000  0.47323714  -0.00000000  1
  Ni  Ni14  1  0.75000000  0.27676286  0.00000000  1
  Ni  Ni15  1  0.50000000  0.47323714  -0.00000000  1
  C  C16  1  0.25000000  0.02144192  -0.00000000  1
  C  C17  1  0.25000000  0.24862106  0.50000000  1
  C  C18  1  -0.00000000  0.00098994  0.50000000  1
  C  C19  1  -0.00000000  0.24294897  0.00000000  1
  C  C20  1  0.25000000  0.50705103  -0.00000000  1
  C  C21  1  0.25000000  0.74901006  0.50000000  1
  C  C22  1  -0.00000000  0.50137894  0.50000000  1
  C  C23  1  -0.00000000  0.72855808  0.00000000  1
  C  C24  1  0.75000000  0.02144192  -0.00000000  1
  C  C25  1  0.75000000  0.24862106  0.50000000  1
  C  C26  1  0.50000000  0.00098994  0.50000000  1
  C  C27  1  0.50000000  0.24294897  0.00000000  1
  C  C28  1  0.75000000  0.50705103  -0.00000000  1
  C  C29  1  0.75000000  0.74901006  0.50000000  1
  C  C30  1  0.50000000  0.50137894  0.50000000  1
  C  C31  1  0.50000000  0.72855808  0.00000000  1
