# generated using pymatgen
data_CoW3C4
_symmetry_space_group_name_H-M   'P 1'
_cell_length_a   8.71267204
_cell_length_b   8.71267204
_cell_length_c   4.26546402
_cell_angle_alpha   90.00000000
_cell_angle_beta   90.00000000
_cell_angle_gamma   89.10070600
_symmetry_Int_Tables_number   1
_chemical_formula_structural   CoW3C4
_chemical_formula_sum   'Co4 W12 C16'
_cell_volume   323.75428048
_cell_formula_units_Z   4
loop_
 _symmetry_equiv_pos_site_id
 _symmetry_equiv_pos_as_xyz
  1  'x, y, z'
loop_
 _atom_site_type_symbol
 _atom_site_label
 _atom_site_symmetry_multiplicity
 _atom_site_fract_x
 _atom_site_fract_y
 _atom_site_fract_z
 _atom_site_occupancy
  W  W0  1  0.99642422  0.99904898  0.00000000  1
  W  W1  1  0.26353868  0.01635043  0.50000000  1
  W  W2  1  0.99549626  0.75445767  0.50000000  1
  W  W3  1  0.24266982  0.49266982  0.50000000  1
  W  W4  1  0.24353325  0.72609981  0.00000000  1
  W  W5  1  0.50333453  0.00507758  0.00000000  1
  W  W6  1  0.50445767  0.24549626  0.50000000  1
  W  W7  1  0.74904898  0.24642422  0.00000000  1
  W  W8  1  0.47609981  0.49353325  0.00000000  1
  W  W9  1  0.51076215  0.76076215  0.50000000  1
  W  W10  1  0.76635043  0.51353868  0.50000000  1
  W  W11  1  0.75507758  0.75333453  0.00000000  1
  Co  Co12  1  0.01668920  0.26668920  0.50000000  1
  Co  Co13  1  0.21149207  0.22507027  0.00000000  1
  Co  Co14  1  0.97507027  0.46149207  0.00000000  1
  Co  Co15  1  0.79076423  0.04076423  0.50000000  1
  C  C16  1  0.25134060  0.99552151  0.00000000  1
  C  C17  1  0.24440764  0.24806146  0.50000000  1
  C  C18  1  0.00922089  0.01079335  0.50000000  1
  C  C19  1  0.99938070  0.24938070  0.00000000  1
  C  C20  1  0.22569062  0.47569062  0.00000000  1
  C  C21  1  0.25100068  0.75029873  0.50000000  1
  C  C22  1  0.99806146  0.49440764  0.50000000  1
  C  C23  1  0.99888695  0.73561360  0.00000000  1
  C  C24  1  0.75357185  0.00357185  0.00000000  1
  C  C25  1  0.76079335  0.25922089  0.50000000  1
  C  C26  1  0.52809648  0.00151100  0.50000000  1
  C  C27  1  0.48561360  0.24888695  0.00000000  1
  C  C28  1  0.74552151  0.50134060  0.00000000  1
  C  C29  1  0.75151100  0.77809648  0.50000000  1
  C  C30  1  0.50029873  0.50100068  0.50000000  1
  C  C31  1  0.49579485  0.74579485  0.00000000  1
