# generated using pymatgen
data_FeW3C4
_symmetry_space_group_name_H-M   'P 1'
_cell_length_a   8.72258213
_cell_length_b   8.63454833
_cell_length_c   4.28305708
_cell_angle_alpha   90.00000000
_cell_angle_beta   90.00000000
_cell_angle_gamma   90.85612628
_symmetry_Int_Tables_number   1
_chemical_formula_structural   FeW3C4
_chemical_formula_sum   'Fe4 W12 C16'
_cell_volume   322.54481884
_cell_formula_units_Z   4
loop_
 _symmetry_equiv_pos_site_id
 _symmetry_equiv_pos_as_xyz
  1  'x, y, z'
loop_
 _atom_site_type_symbol
 _atom_site_label
 _atom_site_symmetry_multiplicity
 _atom_site_fract_x
 _atom_site_fract_y
 _atom_site_fract_z
 _atom_site_occupancy
  W  W0  1  0.01122993  0.99549388  0.00000000  1
  W  W1  1  0.00145117  0.24551654  0.50000000  1
  W  W2  1  0.25096600  0.99978265  0.50000000  1
  W  W3  1  0.26354480  0.25102456  0.00000000  1
  W  W4  1  0.02050897  0.49566666  0.00000000  1
  W  W5  1  0.01342612  0.75917993  0.50000000  1
  W  W6  1  0.24874075  0.76243354  0.00000000  1
  W  W7  1  0.72972816  0.23901436  0.00000000  1
  W  W8  1  0.49878185  0.49046920  0.00000000  1
  W  W9  1  0.49738290  0.76389892  0.50000000  1
  W  W10  1  0.73325261  0.50282523  0.50000000  1
  W  W11  1  0.74784724  0.75004254  0.00000000  1
  C  C12  1  0.27136633  0.00566826  0.00000000  1
  C  C13  1  0.26126755  0.25207258  0.50000000  1
  C  C14  1  0.98575197  0.00067314  0.50000000  1
  C  C15  1  0.99948604  0.24770216  0.00000000  1
  C  C16  1  0.25625705  0.50288789  0.00000000  1
  C  C17  1  0.25418776  0.73513617  0.50000000  1
  C  C18  1  0.99546992  0.50124645  0.50000000  1
  C  C19  1  0.99656753  0.74451275  0.00000000  1
  C  C20  1  0.75460909  0.99858855  0.00000000  1
  C  C21  1  0.74818508  0.24823275  0.50000000  1
  C  C22  1  0.49878750  0.01539789  0.50000000  1
  C  C23  1  0.49813210  0.23272471  0.00000000  1
  C  C24  1  0.75462056  0.49344003  0.00000000  1
  C  C25  1  0.75145659  0.76870906  0.50000000  1
  C  C26  1  0.48290761  0.50384531  0.50000000  1
  C  C27  1  0.50019588  0.75112824  0.00000000  1
  Fe  Fe28  1  0.22153864  0.46942915  0.50000000  1
  Fe  Fe29  1  0.53491156  0.97848732  0.00000000  1
  Fe  Fe30  1  0.50720544  0.27036674  0.50000000  1
  Fe  Fe31  1  0.71023530  0.02440279  0.50000000  1
