# generated using pymatgen
data_TiW3C4
_symmetry_space_group_name_H-M   'P 1'
_cell_length_a   8.72324154
_cell_length_b   8.72367323
_cell_length_c   4.37061512
_cell_angle_alpha   90.00000000
_cell_angle_beta   90.00000000
_cell_angle_gamma   90.00000000
_symmetry_Int_Tables_number   1
_chemical_formula_structural   TiW3C4
_chemical_formula_sum   'Ti4 W12 C16'
_cell_volume   332.59816686
_cell_formula_units_Z   4
loop_
 _symmetry_equiv_pos_site_id
 _symmetry_equiv_pos_as_xyz
  1  'x, y, z'
loop_
 _atom_site_type_symbol
 _atom_site_label
 _atom_site_symmetry_multiplicity
 _atom_site_fract_x
 _atom_site_fract_y
 _atom_site_fract_z
 _atom_site_occupancy
  W  W0  1  0.99371855  0.99718890  0.00000000  1
  W  W1  1  0.99225573  0.25312566  0.50000000  1
  W  W2  1  0.25000000  0.00153758  0.50000000  1
  W  W3  1  0.25000000  0.24973339  0.00000000  1
  W  W4  1  0.00534266  0.50060767  0.00000000  1
  W  W5  1  0.00762473  0.75028061  0.50000000  1
  W  W6  1  0.50628145  0.99718890  0.00000000  1
  W  W7  1  0.50774427  0.25312566  0.50000000  1
  W  W8  1  0.75000000  0.99475043  0.50000000  1
  W  W9  1  0.49465734  0.50060767  0.00000000  1
  W  W10  1  0.49237527  0.75028061  0.50000000  1
  W  W11  1  0.75000000  0.50379331  0.50000000  1
  C  C12  1  0.25000000  0.99747293  0.00000000  1
  C  C13  1  0.25000000  0.25259297  0.50000000  1
  C  C14  1  0.00126582  0.00187410  0.50000000  1
  C  C15  1  0.99817458  0.24908764  0.00000000  1
  C  C16  1  0.25000000  0.50136137  0.00000000  1
  C  C17  1  0.25000000  0.74853891  0.50000000  1
  C  C18  1  0.00226233  0.50073050  0.50000000  1
  C  C19  1  0.99946848  0.74944093  0.00000000  1
  C  C20  1  0.75000000  0.99833761  0.00000000  1
  C  C21  1  0.75000000  0.25012426  0.50000000  1
  C  C22  1  0.49873418  0.00187410  0.50000000  1
  C  C23  1  0.50182542  0.24908764  0.00000000  1
  C  C24  1  0.75000000  0.50034937  0.00000000  1
  C  C25  1  0.75000000  0.74906378  0.50000000  1
  C  C26  1  0.49773767  0.50073050  0.50000000  1
  C  C27  1  0.50053152  0.74944093  0.00000000  1
  Ti  Ti28  1  0.25000000  0.49877180  0.50000000  1
  Ti  Ti29  1  0.25000000  0.74977541  0.00000000  1
  Ti  Ti30  1  0.75000000  0.24972807  0.00000000  1
  Ti  Ti31  1  0.75000000  0.74939681  0.00000000  1
