# generated using pymatgen
data_AlW3C4
_symmetry_space_group_name_H-M   'P 1'
_cell_length_a   8.71590197
_cell_length_b   8.69649275
_cell_length_c   4.33751495
_cell_angle_alpha   90.00000000
_cell_angle_beta   90.00000000
_cell_angle_gamma   90.00000000
_symmetry_Int_Tables_number   1
_chemical_formula_structural   AlW3C4
_chemical_formula_sum   'Al4 W12 C16'
_cell_volume   328.77399652
_cell_formula_units_Z   4
loop_
 _symmetry_equiv_pos_site_id
 _symmetry_equiv_pos_as_xyz
  1  'x, y, z'
loop_
 _atom_site_type_symbol
 _atom_site_label
 _atom_site_symmetry_multiplicity
 _atom_site_fract_x
 _atom_site_fract_y
 _atom_site_fract_z
 _atom_site_occupancy
  W  W0  1  0.99993398  0.98626612  0.00000000  1
  W  W1  1  0.24966755  0.99147586  0.50000000  1
  W  W2  1  0.24542169  0.25000000  0.00000000  1
  W  W3  1  0.99993398  0.51373388  0.00000000  1
  W  W4  1  0.00878378  0.75000000  0.50000000  1
  W  W5  1  0.24966755  0.50852414  0.50000000  1
  W  W6  1  0.23836961  0.75000000  0.00000000  1
  W  W7  1  0.50118252  0.00938006  0.00000000  1
  W  W8  1  0.75276447  0.00417045  0.50000000  1
  W  W9  1  0.75454573  0.25000000  0.00000000  1
  W  W10  1  0.50118252  0.49061994  0.00000000  1
  W  W11  1  0.75276447  0.49582955  0.50000000  1
  Al  Al12  1  0.00529078  0.25000000  0.50000000  1
  Al  Al13  1  0.49656038  0.25000000  0.50000000  1
  Al  Al14  1  0.51060811  0.75000000  0.50000000  1
  Al  Al15  1  0.73327002  0.75000000  0.00000000  1
  C  C16  1  0.25050574  0.99956721  0.00000000  1
  C  C17  1  0.25298009  0.25000000  0.50000000  1
  C  C18  1  0.00164798  0.00949553  0.50000000  1
  C  C19  1  -0.00044028  0.25000000  0.00000000  1
  C  C20  1  0.25050574  0.50043279  0.00000000  1
  C  C21  1  0.26815077  0.75000000  0.50000000  1
  C  C22  1  0.00164798  0.49050447  0.50000000  1
  C  C23  1  0.97768749  0.75000000  0.00000000  1
  C  C24  1  0.75065243  0.99293302  0.00000000  1
  C  C25  1  0.74782716  0.25000000  0.50000000  1
  C  C26  1  0.50087923  0.00546146  0.50000000  1
  C  C27  1  0.50076349  0.25000000  0.00000000  1
  C  C28  1  0.75065243  0.50706698  0.00000000  1
  C  C29  1  0.74894500  0.75000000  0.50000000  1
  C  C30  1  0.50087923  0.49453854  0.50000000  1
  C  C31  1  0.49676835  0.75000000  0.00000000  1
