# generated using pymatgen
data_MoW3C4
_symmetry_space_group_name_H-M   'P 1'
_cell_length_a   8.92747032
_cell_length_b   8.66019677
_cell_length_c   4.35641799
_cell_angle_alpha   90.00000000
_cell_angle_beta   90.00000000
_cell_angle_gamma   90.00028482
_symmetry_Int_Tables_number   1
_chemical_formula_structural   MoW3C4
_chemical_formula_sum   'Mo4 W12 C16'
_cell_volume   336.81057412
_cell_formula_units_Z   4
loop_
 _symmetry_equiv_pos_site_id
 _symmetry_equiv_pos_as_xyz
  1  'x, y, z'
loop_
 _atom_site_type_symbol
 _atom_site_label
 _atom_site_symmetry_multiplicity
 _atom_site_fract_x
 _atom_site_fract_y
 _atom_site_fract_z
 _atom_site_occupancy
  W  W0  1  0.98950565  0.00191826  0.00000000  1
  W  W1  1  0.98671591  0.25130317  0.50000000  1
  W  W2  1  0.99358365  0.75305528  0.50000000  1
  W  W3  1  0.25515149  0.49150061  0.50000000  1
  W  W4  1  0.25485665  0.75453581  0.00000000  1
  W  W5  1  0.48820216  0.99455893  0.00000000  1
  W  W6  1  0.49041822  0.25154535  0.50000000  1
  W  W7  1  0.76218327  0.99055475  0.50000000  1
  W  W8  1  0.75929847  0.25515294  0.00000000  1
  W  W9  1  0.48398678  0.50325852  0.00000000  1
  W  W10  1  0.48301693  0.75043765  0.50000000  1
  W  W11  1  0.76584929  0.50581501  0.50000000  1
  Mo  Mo12  1  0.26741953  0.00568770  0.50000000  1
  Mo  Mo13  1  0.26852650  0.24919379  0.00000000  1
  Mo  Mo14  1  0.98663018  0.49037560  0.00000000  1
  Mo  Mo15  1  0.77139840  0.75077415  0.00000000  1
  C  C16  1  0.24000455  0.00116572  0.00000000  1
  C  C17  1  0.23968666  0.24884140  0.50000000  1
  C  C18  1  0.00947474  0.00216805  0.50000000  1
  C  C19  1  0.00890705  0.24673016  0.00000000  1
  C  C20  1  0.23911954  0.50101321  0.00000000  1
  C  C21  1  0.24042269  0.74851806  0.50000000  1
  C  C22  1  0.00837043  0.50165132  0.50000000  1
  C  C23  1  0.01092492  0.74826186  0.00000000  1
  C  C24  1  0.74071120  0.00200135  0.00000000  1
  C  C25  1  0.74095471  0.24954625  0.50000000  1
  C  C26  1  0.51266222  0.00022543  0.50000000  1
  C  C27  1  0.51191165  0.24939886  0.00000000  1
  C  C28  1  0.73663555  0.50222498  0.00000000  1
  C  C29  1  0.73881961  0.74851381  0.50000000  1
  C  C30  1  0.50708699  0.50100611  0.50000000  1
  C  C31  1  0.50756440  0.74906594  0.00000000  1
