# generated using pymatgen
data_TaW3C4
_symmetry_space_group_name_H-M   'P 1'
_cell_length_a   8.74852477
_cell_length_b   8.92996730
_cell_length_c   4.38647232
_cell_angle_alpha   90.00000000
_cell_angle_beta   90.00000000
_cell_angle_gamma   90.00000000
_symmetry_Int_Tables_number   1
_chemical_formula_structural   TaW3C4
_chemical_formula_sum   'Ta4 W12 C16'
_cell_volume   342.68893951
_cell_formula_units_Z   4
loop_
 _symmetry_equiv_pos_site_id
 _symmetry_equiv_pos_as_xyz
  1  'x, y, z'
loop_
 _atom_site_type_symbol
 _atom_site_label
 _atom_site_symmetry_multiplicity
 _atom_site_fract_x
 _atom_site_fract_y
 _atom_site_fract_z
 _atom_site_occupancy
  W  W0  1  0.00260732  0.98923167  0.00000000  1
  W  W1  1  0.00215173  0.26748023  0.50000000  1
  W  W2  1  0.25000000  0.98855496  0.50000000  1
  W  W3  1  0.00096228  0.48951428  0.00000000  1
  W  W4  1  0.00542849  0.76669798  0.50000000  1
  W  W5  1  0.25000000  0.48561797  0.50000000  1
  W  W6  1  0.25000000  0.76074218  0.00000000  1
  W  W7  1  0.49739268  0.98923167  0.00000000  1
  W  W8  1  0.49784827  0.26748023  0.50000000  1
  W  W9  1  0.75000000  0.99443397  0.50000000  1
  W  W10  1  0.49903772  0.48951428  0.00000000  1
  W  W11  1  0.49457151  0.76669798  0.50000000  1
  Ta  Ta12  1  0.25000000  0.25149393  0.00000000  1
  Ta  Ta13  1  0.75000000  0.24927539  0.00000000  1
  Ta  Ta14  1  0.75000000  0.50079295  0.50000000  1
  Ta  Ta15  1  0.75000000  0.75001812  0.00000000  1
  C  C16  1  0.25000000  0.00184555  0.00000000  1
  C  C17  1  0.25000000  0.23925974  0.50000000  1
  C  C18  1  0.99976974  0.01318701  0.50000000  1
  C  C19  1  0.00014823  0.23981106  0.00000000  1
  C  C20  1  0.25000000  0.50394185  0.00000000  1
  C  C21  1  0.25000000  0.73870351  0.50000000  1
  C  C22  1  0.00243699  0.51372401  0.50000000  1
  C  C23  1  0.00190913  0.74054684  0.00000000  1
  C  C24  1  0.75000000  0.99840863  0.00000000  1
  C  C25  1  0.75000000  0.24819094  0.50000000  1
  C  C26  1  0.50023026  0.01318701  0.50000000  1
  C  C27  1  0.49985177  0.23981106  0.00000000  1
  C  C28  1  0.75000000  0.49845345  0.00000000  1
  C  C29  1  0.75000000  0.74988073  0.50000000  1
  C  C30  1  0.49756301  0.51372401  0.50000000  1
  C  C31  1  0.49809087  0.74054684  0.00000000  1
