# generated using pymatgen
data_HfW3C4
_symmetry_space_group_name_H-M   'P 1'
_cell_length_a   8.93069756
_cell_length_b   8.93069757
_cell_length_c   4.39397765
_cell_angle_alpha   90.00000000
_cell_angle_beta   90.00000000
_cell_angle_gamma   89.13471008
_symmetry_Int_Tables_number   1
_chemical_formula_structural   HfW3C4
_chemical_formula_sum   'Hf4 W12 C16'
_cell_volume   350.41208875
_cell_formula_units_Z   4
loop_
 _symmetry_equiv_pos_site_id
 _symmetry_equiv_pos_as_xyz
  1  'x, y, z'
loop_
 _atom_site_type_symbol
 _atom_site_label
 _atom_site_symmetry_multiplicity
 _atom_site_fract_x
 _atom_site_fract_y
 _atom_site_fract_z
 _atom_site_occupancy
  W  W0  1  -0.00227439  0.98325791  0.00000000  1
  W  W1  1  0.00539701  0.25539701  0.50000000  1
  W  W2  1  0.22192593  0.25583998  0.00000000  1
  W  W3  1  0.00583998  0.47192593  0.00000000  1
  W  W4  1  0.99740106  0.76357833  0.50000000  1
  W  W5  1  0.22703726  0.75690714  0.00000000  1
  W  W6  1  0.50860748  0.01307850  0.00000000  1
  W  W7  1  0.51357833  0.24740106  0.50000000  1
  W  W8  1  0.75306050  0.00306050  0.50000000  1
  W  W9  1  0.73325791  0.24772561  0.00000000  1
  W  W10  1  0.50690714  0.47703726  0.00000000  1
  W  W11  1  0.76307850  0.75860748  0.00000000  1
  Hf  Hf12  1  0.25039691  0.00515829  0.50000000  1
  Hf  Hf13  1  0.25110429  0.50110429  0.50000000  1
  Hf  Hf14  1  0.50112252  0.75112252  0.50000000  1
  Hf  Hf15  1  0.75515829  0.50039691  0.50000000  1
  C  C16  1  0.25156823  0.00429198  0.00000000  1
  C  C17  1  0.25654418  0.25326586  0.50000000  1
  C  C18  1  0.99882390  0.00808401  0.50000000  1
  C  C19  1  0.98077278  0.23077278  0.00000000  1
  C  C20  1  0.25374170  0.50374170  0.00000000  1
  C  C21  1  0.24723675  0.75349313  0.50000000  1
  C  C22  1  0.00326586  0.50654418  0.50000000  1
  C  C23  1  0.99780942  0.73031486  0.00000000  1
  C  C24  1  0.75292477  0.00292477  0.00000000  1
  C  C25  1  0.75808401  0.24882390  0.50000000  1
  C  C26  1  0.50674339  0.00406053  0.50000000  1
  C  C27  1  0.48031486  0.24780942  0.00000000  1
  C  C28  1  0.75429198  0.50156823  0.00000000  1
  C  C29  1  0.75406053  0.75674339  0.50000000  1
  C  C30  1  0.50349313  0.49723675  0.50000000  1
  C  C31  1  0.50872579  0.75872579  0.00000000  1
