# generated using pymatgen
data_BW3C4
_symmetry_space_group_name_H-M   'P 1'
_cell_length_a   8.50262921
_cell_length_b   8.75530475
_cell_length_c   4.31235715
_cell_angle_alpha   90.00000000
_cell_angle_beta   90.00000000
_cell_angle_gamma   90.00000000
_symmetry_Int_Tables_number   1
_chemical_formula_structural   BW3C4
_chemical_formula_sum   'B4 W12 C16'
_cell_volume   321.02527729
_cell_formula_units_Z   4
loop_
 _symmetry_equiv_pos_site_id
 _symmetry_equiv_pos_as_xyz
  1  'x, y, z'
loop_
 _atom_site_type_symbol
 _atom_site_label
 _atom_site_symmetry_multiplicity
 _atom_site_fract_x
 _atom_site_fract_y
 _atom_site_fract_z
 _atom_site_occupancy
  W  W0  1  0.00301781  0.02445735  0.00000000  1
  W  W1  1  0.24926188  0.03056884  0.50000000  1
  W  W2  1  0.29513082  0.25000000  0.00000000  1
  W  W3  1  0.00301781  0.47554265  0.00000000  1
  W  W4  1  0.00493213  0.75000000  0.50000000  1
  W  W5  1  0.24926188  0.46943116  0.50000000  1
  W  W6  1  0.24953871  0.75000000  0.00000000  1
  W  W7  1  0.50781246  0.98500828  0.00000000  1
  W  W8  1  0.75291792  0.97922389  0.50000000  1
  W  W9  1  0.50781246  0.51499172  0.00000000  1
  W  W10  1  0.75291792  0.52077611  0.50000000  1
  W  W11  1  0.75709666  0.75000000  0.00000000  1
  B  B12  1  0.90810382  0.25000000  0.50000000  1
  B  B13  1  0.55219821  0.25000000  0.50000000  1
  B  B14  1  0.71864959  0.25000000  0.00000000  1
  B  B15  1  0.43942032  0.75000000  0.50000000  1
  C  C16  1  0.25298322  0.00522074  0.00000000  1
  C  C17  1  0.36967889  0.25000000  0.50000000  1
  C  C18  1  0.99830852  0.09127473  0.50000000  1
  C  C19  1  0.90046943  0.25000000  0.00000000  1
  C  C20  1  0.25298322  0.49477926  0.00000000  1
  C  C21  1  0.25458329  0.75000000  0.50000000  1
  C  C22  1  0.99830852  0.40872527  0.50000000  1
  C  C23  1  0.00365033  0.75000000  0.00000000  1
  C  C24  1  0.75440133  0.99938802  0.00000000  1
  C  C25  1  0.72468789  0.25000000  0.50000000  1
  C  C26  1  0.49818330  0.92335435  0.50000000  1
  C  C27  1  0.53898344  0.25000000  0.00000000  1
  C  C28  1  0.75440133  0.50061198  0.00000000  1
  C  C29  1  0.74856670  0.75000000  0.50000000  1
  C  C30  1  0.49818330  0.57664565  0.50000000  1
  C  C31  1  0.50053691  0.75000000  0.00000000  1
