# generated using pymatgen
data_Si3WC4
_symmetry_space_group_name_H-M   'P 1'
_cell_length_a   10.29523698
_cell_length_b   5.77056524
_cell_length_c   5.10990649
_cell_angle_alpha   90.00000000
_cell_angle_beta   90.00000000
_cell_angle_gamma   120.81652649
_symmetry_Int_Tables_number   1
_chemical_formula_structural   Si3WC4
_chemical_formula_sum   'Si9 W3 C12'
_cell_volume   260.71489555
_cell_formula_units_Z   3
loop_
 _symmetry_equiv_pos_site_id
 _symmetry_equiv_pos_as_xyz
  1  'x, y, z'
loop_
 _atom_site_type_symbol
 _atom_site_label
 _atom_site_symmetry_multiplicity
 _atom_site_fract_x
 _atom_site_fract_y
 _atom_site_fract_z
 _atom_site_occupancy
  Si  Si0  1  0.10800212  0.21002949  0.00000000  1
  Si  Si1  1  0.94464814  0.89315535  0.50000000  1
  Si  Si2  1  0.90094402  0.33876734  0.50000000  1
  Si  Si3  1  0.19811223  0.01115583  0.50000000  1
  Si  Si4  1  0.44346543  0.53439381  0.00000000  1
  Si  Si5  1  0.28361682  0.56944963  0.50000000  1
  Si  Si6  1  0.76120731  0.96840033  0.00000000  1
  Si  Si7  1  0.54082031  0.90208389  0.50000000  1
  Si  Si8  1  0.70453170  0.32510275  0.00000000  1
  C  C9  1  0.27160928  0.30074058  0.24003447  1
  C  C10  1  0.27160928  0.30074058  0.75996553  1
  C  C11  1  0.19546531  0.72116518  0.26993037  1
  C  C12  1  0.19546531  0.72116518  0.73006963  1
  C  C13  1  0.52435949  0.15841563  0.23694791  1
  C  C14  1  0.52435949  0.15841563  0.76305209  1
  C  C15  1  0.61104837  0.72528193  0.25520699  1
  C  C16  1  0.61104837  0.72528193  0.74479301  1
  C  C17  1  0.93618794  0.14070505  0.23766275  1
  C  C18  1  0.93618794  0.14070505  0.76233725  1
  C  C19  1  0.85641814  0.56785677  0.26594510  1
  C  C20  1  0.85641814  0.56785677  0.73405490  1
  W  W21  1  0.01064179  0.52744332  0.00000000  1
  W  W22  1  0.32917566  0.02585498  0.00000000  1
  W  W23  1  0.65132406  0.46583296  0.50000000  1
