# generated using pymatgen
data_OsWC2
_symmetry_space_group_name_H-M   'P 1'
_cell_length_a   9.34584487
_cell_length_b   9.42463244
_cell_length_c   4.17086116
_cell_angle_alpha   90.00000000
_cell_angle_beta   90.00000000
_cell_angle_gamma   87.20803022
_symmetry_Int_Tables_number   1
_chemical_formula_structural   OsWC2
_chemical_formula_sum   'Os8 W8 C16'
_cell_volume   366.93817624
_cell_formula_units_Z   8
loop_
 _symmetry_equiv_pos_site_id
 _symmetry_equiv_pos_as_xyz
  1  'x, y, z'
loop_
 _atom_site_type_symbol
 _atom_site_label
 _atom_site_symmetry_multiplicity
 _atom_site_fract_x
 _atom_site_fract_y
 _atom_site_fract_z
 _atom_site_occupancy
  Os  Os0  1  0.01911796  0.99008119  0.00000000  1
  Os  Os1  1  0.28390239  0.08861391  0.50000000  1
  Os  Os2  1  0.31054929  0.31183232  0.00000000  1
  Os  Os3  1  0.98240144  0.42034192  0.00000000  1
  Os  Os4  1  0.02412178  0.79384005  0.50000000  1
  Os  Os5  1  0.57958504  0.30322532  0.50000000  1
  Os  Os6  1  0.67960605  0.99590923  0.50000000  1
  Os  Os7  1  0.74030986  0.56920941  0.50000000  1
  W  W8  1  0.99336599  0.21530619  0.50000000  1
  W  W9  1  0.15995704  0.50676761  0.50000000  1
  W  W10  1  0.21463351  0.72649154  0.00000000  1
  W  W11  1  0.44467275  0.95055309  0.00000000  1
  W  W12  1  0.75729376  0.18813083  0.00000000  1
  W  W13  1  0.55529914  0.50998666  0.00000000  1
  W  W14  1  0.45872471  0.73638299  0.50000000  1
  W  W15  1  0.73836548  0.76338674  0.00000000  1
  C  C16  1  0.23580932  -0.00069526  0.00000000  1
  C  C17  1  0.22963510  0.28895985  0.50000000  1
  C  C18  1  0.08523037  0.99923762  0.50000000  1
  C  C19  1  0.98938790  0.21108305  0.00000000  1
  C  C20  1  0.19333929  0.50454898  0.00000000  1
  C  C21  1  0.24766222  0.71108750  0.50000000  1
  C  C22  1  0.94668726  0.46755464  0.50000000  1
  C  C23  1  0.99392789  0.76299177  0.00000000  1
  C  C24  1  0.76207710  0.98131170  0.00000000  1
  C  C25  1  0.77181026  0.19944203  0.50000000  1
  C  C26  1  0.47314053  0.96396322  0.50000000  1
  C  C27  1  0.52291687  0.28188235  0.00000000  1
  C  C28  1  0.77759961  0.52272690  0.00000000  1
  C  C29  1  0.80013582  0.78225359  0.50000000  1
  C  C30  1  0.52028020  0.51634639  0.50000000  1
  C  C31  1  0.50845411  0.73724668  0.00000000  1
