# generated using pymatgen
data_Nb3WC4
_symmetry_space_group_name_H-M   'P 1'
_cell_length_a   8.93503595
_cell_length_b   8.94264903
_cell_length_c   4.42411125
_cell_angle_alpha   90.00000000
_cell_angle_beta   90.00000000
_cell_angle_gamma   90.00000000
_symmetry_Int_Tables_number   1
_chemical_formula_structural   Nb3WC4
_chemical_formula_sum   'Nb12 W4 C16'
_cell_volume   353.49927708
_cell_formula_units_Z   4
loop_
 _symmetry_equiv_pos_site_id
 _symmetry_equiv_pos_as_xyz
  1  'x, y, z'
loop_
 _atom_site_type_symbol
 _atom_site_label
 _atom_site_symmetry_multiplicity
 _atom_site_fract_x
 _atom_site_fract_y
 _atom_site_fract_z
 _atom_site_occupancy
  Nb  Nb0  1  0.00000000  0.00094469  -0.00000000  1
  Nb  Nb1  1  0.24981000  0.00108007  0.50000000  1
  Nb  Nb2  1  0.00000000  0.49905531  -0.00000000  1
  Nb  Nb3  1  0.00000000  0.75000000  0.50000000  1
  Nb  Nb4  1  0.24981000  0.49891993  0.50000000  1
  Nb  Nb5  1  0.24861675  0.75000000  -0.00000000  1
  Nb  Nb6  1  0.50000000  0.00053270  -0.00000000  1
  Nb  Nb7  1  0.50000000  0.25000000  0.50000000  1
  Nb  Nb8  1  0.75019000  0.00108007  0.50000000  1
  Nb  Nb9  1  0.50000000  0.49946730  -0.00000000  1
  Nb  Nb10  1  0.75019000  0.49891993  0.50000000  1
  Nb  Nb11  1  0.75138325  0.75000000  -0.00000000  1
  W  W12  1  0.00000000  0.25000000  0.50000000  1
  W  W13  1  0.25426439  0.25000000  -0.00000000  1
  W  W14  1  0.74573561  0.25000000  0.00000000  1
  W  W15  1  0.50000000  0.75000000  0.50000000  1
  C  C16  1  0.25005813  0.00252644  -0.00000000  1
  C  C17  1  0.24730871  0.25000000  0.50000000  1
  C  C18  1  0.00000000  0.00295709  0.50000000  1
  C  C19  1  0.00000000  0.25000000  -0.00000000  1
  C  C20  1  0.25005813  0.49747356  -0.00000000  1
  C  C21  1  0.25255707  0.75000000  0.50000000  1
  C  C22  1  0.00000000  0.49704291  0.50000000  1
  C  C23  1  0.00000000  0.75000000  -0.00000000  1
  C  C24  1  0.74994187  0.00252644  -0.00000000  1
  C  C25  1  0.75269129  0.25000000  0.50000000  1
  C  C26  1  0.50000000  0.99808903  0.50000000  1
  C  C27  1  0.50000000  0.25000000  -0.00000000  1
  C  C28  1  0.74994187  0.49747356  -0.00000000  1
  C  C29  1  0.74744293  0.75000000  0.50000000  1
  C  C30  1  0.50000000  0.50191097  0.50000000  1
  C  C31  1  0.50000000  0.75000000  -0.00000000  1
