# generated using pymatgen
data_VW3C4
_symmetry_space_group_name_H-M   'P 1'
_cell_length_a   8.77977175
_cell_length_b   8.61806648
_cell_length_c   4.31506679
_cell_angle_alpha   90.00000000
_cell_angle_beta   90.00000000
_cell_angle_gamma   89.97828628
_symmetry_Int_Tables_number   1
_chemical_formula_structural   VW3C4
_chemical_formula_sum   'V4 W12 C16'
_cell_volume   326.49802347
_cell_formula_units_Z   4
loop_
 _symmetry_equiv_pos_site_id
 _symmetry_equiv_pos_as_xyz
  1  'x, y, z'
loop_
 _atom_site_type_symbol
 _atom_site_label
 _atom_site_symmetry_multiplicity
 _atom_site_fract_x
 _atom_site_fract_y
 _atom_site_fract_z
 _atom_site_occupancy
  V  V0  1  0.99036512  0.00387358  0.00000000  1
  V  V1  1  0.99677799  0.24937430  0.50000000  1
  V  V2  1  0.25964332  0.49592502  0.50000000  1
  V  V3  1  0.48980139  0.25164089  0.50000000  1
  W  W4  1  0.25159765  0.00257745  0.50000000  1
  W  W5  1  0.25281546  0.25108022  0.00000000  1
  W  W6  1  0.99503119  0.49768850  0.00000000  1
  W  W7  1  0.99292393  0.75071521  0.50000000  1
  W  W8  1  0.25903862  0.74834764  0.00000000  1
  W  W9  1  0.49061240  0.00407067  0.00000000  1
  W  W10  1  0.76424225  0.00153370  0.50000000  1
  W  W11  1  0.76025239  0.24853701  0.00000000  1
  W  W12  1  0.48658464  0.49647582  0.00000000  1
  W  W13  1  0.48639153  0.74849396  0.50000000  1
  W  W14  1  0.75756788  0.49798906  0.50000000  1
  W  W15  1  0.76614235  0.75155369  0.00000000  1
  C  C16  1  0.24022684  0.99981859  0.00000000  1
  C  C17  1  0.24744480  0.25375574  0.50000000  1
  C  C18  1  0.00554845  0.00529807  0.50000000  1
  C  C19  1  0.00451150  0.24627027  0.00000000  1
  C  C20  1  0.24266831  0.49956975  0.00000000  1
  C  C21  1  0.24180372  0.74422785  0.50000000  1
  C  C22  1  0.00796506  0.49471128  0.50000000  1
  C  C23  1  0.01002344  0.75574062  0.00000000  1
  C  C24  1  0.74805412  0.00008316  0.00000000  1
  C  C25  1  0.74870593  0.24991172  0.50000000  1
  C  C26  1  0.50482468  0.00529755  0.50000000  1
  C  C27  1  0.50444865  0.25014782  0.00000000  1
  C  C28  1  0.74264516  0.50027667  0.00000000  1
  C  C29  1  0.74087011  0.74998569  0.50000000  1
  C  C30  1  0.50012391  0.49477761  0.50000000  1
  C  C31  1  0.51034721  0.75025092  0.00000000  1
