# generated using pymatgen
data_SiWC2
_symmetry_space_group_name_H-M   'P 1'
_cell_length_a   8.64385848
_cell_length_b   5.80054396
_cell_length_c   5.52186923
_cell_angle_alpha   90.00000000
_cell_angle_beta   90.00000000
_cell_angle_gamma   117.67324596
_symmetry_Int_Tables_number   1
_chemical_formula_structural   SiWC2
_chemical_formula_sum   'Si6 W6 C12'
_cell_volume   245.19142994
_cell_formula_units_Z   6
loop_
 _symmetry_equiv_pos_site_id
 _symmetry_equiv_pos_as_xyz
  1  'x, y, z'
loop_
 _atom_site_type_symbol
 _atom_site_label
 _atom_site_symmetry_multiplicity
 _atom_site_fract_x
 _atom_site_fract_y
 _atom_site_fract_z
 _atom_site_occupancy
  W  W0  1  0.00329503  0.00475131  0.00000000  1
  W  W1  1  0.99699945  0.00189553  0.50000000  1
  W  W2  1  0.00590428  0.51293976  0.00000000  1
  W  W3  1  0.99754940  0.50759166  0.50000000  1
  W  W4  1  0.34307532  0.00059079  0.00000000  1
  W  W5  1  0.64170621  0.52506892  0.00000000  1
  C  C6  1  0.22443937  0.16707602  0.25550918  1
  C  C7  1  0.22443937  0.16707602  0.74449082  1
  C  C8  1  0.23349462  0.66491402  0.24970235  1
  C  C9  1  0.23349462  0.66491402  0.75029765  1
  C  C10  1  0.56584919  0.17082986  0.24613349  1
  C  C11  1  0.56584919  0.17082986  0.75386651  1
  C  C12  1  0.57312598  0.65441450  0.37498739  1
  C  C13  1  0.57312598  0.65441450  0.62501261  1
  C  C14  1  0.88772793  0.17522376  0.24943872  1
  C  C15  1  0.88772793  0.17522376  0.75056128  1
  C  C16  1  0.88455545  0.67740356  0.24487590  1
  C  C17  1  0.88455545  0.67740356  0.75512410  1
  Si  Si18  1  0.28455723  0.95631155  0.50000000  1
  Si  Si19  1  0.30193435  0.46016739  0.00000000  1
  Si  Si20  1  0.27227688  0.44528022  0.50000000  1
  Si  Si21  1  0.69539621  0.07146573  0.00000000  1
  Si  Si22  1  0.69990576  0.05392974  0.50000000  1
  Si  Si23  1  0.68568150  0.44028392  0.50000000  1
