# generated using pymatgen
data_TiNiC
_symmetry_space_group_name_H-M   'P 1'
_cell_length_a   7.65289246
_cell_length_b   7.65289245
_cell_length_c   12.06016956
_cell_angle_alpha   109.94077330
_cell_angle_beta   109.94077331
_cell_angle_gamma   23.60611582
_symmetry_Int_Tables_number   1
_chemical_formula_structural   TiNiC
_chemical_formula_sum   'Ti8 Ni8 C8'
_cell_volume   265.12261796
_cell_formula_units_Z   8
loop_
 _symmetry_equiv_pos_site_id
 _symmetry_equiv_pos_as_xyz
  1  'x, y, z'
loop_
 _atom_site_type_symbol
 _atom_site_label
 _atom_site_symmetry_multiplicity
 _atom_site_fract_x
 _atom_site_fract_y
 _atom_site_fract_z
 _atom_site_occupancy
  C  C0  1  0.66470558  0.66470558  0.73848381  1
  C  C1  1  0.40429456  0.40429456  0.97654059  1
  C  C2  1  0.57786427  0.57786427  0.39820675  1
  C  C3  1  0.26430549  0.26430549  0.58188420  1
  C  C4  1  0.99083203  0.99083203  0.80084204  1
  C  C5  1  0.13022861  0.13022861  0.18667134  1
  C  C6  1  0.91963872  0.91963872  0.48390628  1
  C  C7  1  0.77333189  0.77333189  0.07210184  1
  Ni  Ni8  1  0.56032224  0.56032224  0.22163217  1
  Ni  Ni9  1  0.67174894  0.67174894  0.56722298  1
  Ni  Ni10  1  0.41913502  0.41913502  0.82339125  1
  Ni  Ni11  1  0.18915725  0.18915725  0.04123854  1
  Ni  Ni12  1  0.50130667  0.50130667  0.53083852  1
  Ni  Ni13  1  0.24073364  0.24073364  0.72793856  1
  Ni  Ni14  1  0.34261728  0.34261728  0.39942405  1
  Ni  Ni15  1  0.07339966  0.07339966  0.69435255  1
  Ti  Ti16  1  0.59721498  0.59721498  0.86771972  1
  Ti  Ti17  1  0.37188102  0.37188102  0.12802103  1
  Ti  Ti18  1  0.00830518  0.00830518  0.01642273  1
  Ti  Ti19  1  0.80179859  0.80179859  0.91220404  1
  Ti  Ti20  1  0.17342182  0.17342182  0.39243963  1
  Ti  Ti21  1  0.86452922  0.86452922  0.61883617  1
  Ti  Ti22  1  0.97558556  0.97558556  0.34898785  1
  Ti  Ti23  1  0.73364171  0.73364171  0.22069334  1
