# generated using pymatgen
data_Ti3NiC2
_symmetry_space_group_name_H-M   'P 1'
_cell_length_a   6.01356711
_cell_length_b   6.07154491
_cell_length_c   8.06573898
_cell_angle_alpha   89.81384182
_cell_angle_beta   88.79978679
_cell_angle_gamma   91.03378066
_symmetry_Int_Tables_number   1
_chemical_formula_structural   Ti3NiC2
_chemical_formula_sum   'Ti12 Ni4 C8'
_cell_volume   294.37890895
_cell_formula_units_Z   4
loop_
 _symmetry_equiv_pos_site_id
 _symmetry_equiv_pos_as_xyz
  1  'x, y, z'
loop_
 _atom_site_type_symbol
 _atom_site_label
 _atom_site_symmetry_multiplicity
 _atom_site_fract_x
 _atom_site_fract_y
 _atom_site_fract_z
 _atom_site_occupancy
  C  C0  1  0.74650733  0.26167303  0.51412020  1
  C  C1  1  0.50207802  0.99808078  0.25488426  1
  C  C2  1  0.76046949  0.74821553  0.98544675  1
  C  C3  1  0.74992292  0.26078626  0.99067338  1
  C  C4  1  0.00983175  0.50400556  0.25592510  1
  C  C5  1  0.00617003  0.99635628  0.25461201  1
  C  C6  1  0.25933716  0.24712773  0.99084432  1
  C  C7  1  0.97718787  0.98753477  0.76037077  1
  Ni  Ni8  1  0.76589568  0.25262632  0.74736766  1
  Ni  Ni9  1  0.74509629  0.74923910  0.74234012  1
  Ni  Ni10  1  0.98562899  0.49104571  0.49801330  1
  Ni  Ni11  1  0.00332831  0.00961199  0.00212148  1
  Ti  Ti12  1  0.21353866  0.24272847  0.74124527  1
  Ti  Ti13  1  0.21469365  0.74584877  0.73075019  1
  Ti  Ti14  1  0.50967825  0.00367773  0.52105146  1
  Ti  Ti15  1  0.52532209  0.51306201  0.54218874  1
  Ti  Ti16  1  0.76108769  0.24231700  0.25396585  1
  Ti  Ti17  1  0.75834259  0.75530626  0.23770683  1
  Ti  Ti18  1  0.97204789  0.99678728  0.51021331  1
  Ti  Ti19  1  0.25095995  0.24118611  0.24987189  1
  Ti  Ti20  1  0.24949841  0.75486940  0.27189087  1
  Ti  Ti21  1  0.51882420  0.00789647  0.98933249  1
  Ti  Ti22  1  0.51339260  0.49577128  0.95429472  1
  Ti  Ti23  1  0.00115996  0.49424589  0.00076883  1
