# generated using pymatgen
data_Ti5Ni3C5
_symmetry_space_group_name_H-M   'P 1'
_cell_length_a   5.92993749
_cell_length_b   7.77385577
_cell_length_c   12.87291381
_cell_angle_alpha   92.87267672
_cell_angle_beta   89.81597739
_cell_angle_gamma   100.14406273
_symmetry_Int_Tables_number   1
_chemical_formula_structural   Ti5Ni3C5
_chemical_formula_sum   'Ti20 Ni12 C20'
_cell_volume   583.40182060
_cell_formula_units_Z   4
loop_
 _symmetry_equiv_pos_site_id
 _symmetry_equiv_pos_as_xyz
  1  'x, y, z'
loop_
 _atom_site_type_symbol
 _atom_site_label
 _atom_site_symmetry_multiplicity
 _atom_site_fract_x
 _atom_site_fract_y
 _atom_site_fract_z
 _atom_site_occupancy
  C  C0  1  0.37838246  0.56213476  0.09664454  1
  C  C1  1  0.60168398  0.42901294  0.90896920  1
  C  C2  1  0.12355454  0.54639284  0.58006473  1
  C  C3  1  0.62412025  0.54163646  0.57792916  1
  C  C4  1  0.35934077  0.43814042  0.40678488  1
  C  C5  1  0.59850148  0.30927032  0.23155272  1
  C  C6  1  0.29633759  0.16692672  0.04070871  1
  C  C7  1  0.05183561  0.07227577  0.84324561  1
  C  C8  1  0.80233247  0.17949570  0.03734791  1
  C  C9  1  0.03898145  0.20230846  0.52741469  1
  C  C10  1  0.80932971  0.30288842  0.72107835  1
  C  C11  1  0.48489758  0.94043453  0.16290816  1
  C  C12  1  0.23616388  0.82985575  0.95701277  1
  C  C13  1  0.90281952  0.67925096  0.77521870  1
  C  C14  1  0.72644915  0.82524855  0.97347605  1
  C  C15  1  0.40328364  0.68209805  0.78536903  1
  C  C16  1  0.22374742  0.93399665  0.65109478  1
  C  C17  1  0.72217884  0.93566109  0.65318037  1
  C  C18  1  0.44911214  0.82465350  0.46400837  1
  C  C19  1  0.70030670  0.68837886  0.28426233  1
  Ni  Ni20  1  0.42103961  0.62005256  0.93909529  1
  Ni  Ni21  1  0.63571334  0.63696481  0.43550291  1
  Ni  Ni22  1  0.18912587  0.64206230  0.43838208  1
  Ni  Ni23  1  0.86710361  0.49845078  0.24797502  1
  Ni  Ni24  1  0.30575692  0.25186830  0.88343748  1
  Ni  Ni25  1  0.82644995  0.37649600  0.57351803  1
  Ni  Ni26  1  0.55414228  0.26418103  0.37574084  1
  Ni  Ni27  1  0.33846713  0.37807912  0.55572869  1
  Ni  Ni28  1  0.51908065  0.99939224  0.01374052  1
  Ni  Ni29  1  0.30703834  0.13085209  0.19668518  1
  Ni  Ni30  1  0.01720015  0.01633138  0.98973636  1
  Ni  Ni31  1  0.19600858  0.86188489  0.80122290  1
  Ti  Ti32  1  0.91383570  0.64252811  0.93195028  1
  Ti  Ti33  1  0.60837402  0.49424494  0.75196427  1
  Ti  Ti34  1  0.10965431  0.49794275  0.73987695  1
  Ti  Ti35  1  0.57974305  0.35696540  0.06334725  1
  Ti  Ti36  1  0.39291125  0.50319239  0.25550055  1
  Ti  Ti37  1  0.09923195  0.35862306  0.06648325  1
  Ti  Ti38  1  0.81057099  0.24423369  0.87789036  1
  Ti  Ti39  1  0.51599116  0.11835483  0.69299784  1
  Ti  Ti40  1  0.01219968  0.11684045  0.68650351  1
  Ti  Ti41  1  0.05673372  0.27735157  0.37761647  1
  Ti  Ti42  1  0.79156329  0.12428553  0.19272046  1
  Ti  Ti43  1  0.70541239  0.86965181  0.81512444  1
  Ti  Ti44  1  0.42789043  0.74199368  0.61955394  1
  Ti  Ti45  1  0.92021226  0.73651698  0.61317930  1
  Ti  Ti46  1  0.75173417  0.01345655  0.49472342  1
  Ti  Ti47  1  0.49784802  0.88530003  0.31410038  1
  Ti  Ti48  1  0.25582674  0.01689554  0.50417782  1
  Ti  Ti49  1  0.99506936  0.84459178  0.32409990  1
  Ti  Ti50  1  0.67640355  0.74645977  0.12502971  1
  Ti  Ti51  1  0.19955842  0.76889501  0.11162341  1
