# generated using pymatgen
data_Ti2Ni2C3
_symmetry_space_group_name_H-M   'P 1'
_cell_length_a   10.19614793
_cell_length_b   8.83661878
_cell_length_c   6.65134103
_cell_angle_alpha   79.49471261
_cell_angle_beta   56.80166305
_cell_angle_gamma   40.43313743
_symmetry_Int_Tables_number   1
_chemical_formula_structural   Ti2Ni2C3
_chemical_formula_sum   'Ti8 Ni8 C12'
_cell_volume   293.32013891
_cell_formula_units_Z   4
loop_
 _symmetry_equiv_pos_site_id
 _symmetry_equiv_pos_as_xyz
  1  'x, y, z'
loop_
 _atom_site_type_symbol
 _atom_site_label
 _atom_site_symmetry_multiplicity
 _atom_site_fract_x
 _atom_site_fract_y
 _atom_site_fract_z
 _atom_site_occupancy
  C  C0  1  0.87028314  0.36688677  0.63183934  1
  C  C1  1  0.86606526  0.13217179  0.38691080  1
  C  C2  1  0.36097086  0.39666836  0.61915976  1
  C  C3  1  0.66716544  0.10308181  0.85612590  1
  C  C4  1  0.12412108  0.37903559  0.13398096  1
  C  C5  1  0.37667454  0.12874499  0.37319448  1
  C  C6  1  0.63797260  0.86626917  0.61417842  1
  C  C7  1  0.88175011  0.61689114  0.87472682  1
  C  C8  1  0.11136454  0.12702585  0.89192627  1
  C  C9  1  0.37658521  0.86189539  0.14195300  1
  C  C10  1  0.35287128  0.62989459  0.89273732  1
  C  C11  1  0.11161304  0.64067563  0.34791660  1
  Ni  Ni12  1  0.02981814  0.22227817  0.24115280  1
  Ni  Ni13  1  0.71150977  0.28739810  0.75489544  1
  Ni  Ni14  1  0.01042094  0.99619854  0.03418795  1
  Ni  Ni15  1  0.21928969  0.77925460  0.25457120  1
  Ni  Ni16  1  0.75584584  0.99838105  0.50138488  1
  Ni  Ni17  1  0.00451834  0.73510278  0.70568774  1
  Ni  Ni18  1  0.29055565  0.45906731  0.96335755  1
  Ni  Ni19  1  0.99119504  0.50150996  0.50205400  1
  Ti  Ti20  1  0.25869045  0.24257735  0.75428986  1
  Ti  Ti21  1  0.23012803  0.02101538  0.51237562  1
  Ti  Ti22  1  0.46544413  0.29119769  0.25175287  1
  Ti  Ti23  1  0.51854871  0.98990348  0.99138199  1
  Ti  Ti24  1  0.77629240  0.74125606  0.23827955  1
  Ti  Ti25  1  0.49347480  0.74899828  0.77226039  1
  Ti  Ti26  1  0.75361023  0.49377030  0.99542034  1
  Ti  Ti27  1  0.50322075  0.49284987  0.51229811  1
