# generated using pymatgen
data_SiC
_symmetry_space_group_name_H-M   'P 1'
_cell_length_a   3.09458579
_cell_length_b   3.09458579
_cell_length_c   25.31261417
_cell_angle_alpha   90.00000000
_cell_angle_beta   90.00000000
_cell_angle_gamma   120.00000006
_symmetry_Int_Tables_number   1
_chemical_formula_structural   SiC
_chemical_formula_sum   'Si10 C10'
_cell_volume   209.92912003
_cell_formula_units_Z   10
loop_
 _symmetry_equiv_pos_site_id
 _symmetry_equiv_pos_as_xyz
  1  'x, y, z'
loop_
 _atom_site_type_symbol
 _atom_site_label
 _atom_site_symmetry_multiplicity
 _atom_site_fract_x
 _atom_site_fract_y
 _atom_site_fract_z
 _atom_site_occupancy
  Si  Si0  1  0.00000000  0.00000000  0.19989227  1
  Si  Si1  1  0.00000000  0.00000000  0.39992165  1
  Si  Si2  1  0.33333333  0.66666667  0.29992967  1
  Si  Si3  1  0.00000000  0.00000000  0.59997271  1
  Si  Si4  1  0.33333333  0.66666667  0.99998090  1
  Si  Si5  1  0.33333333  0.66666667  0.70000906  1
  Si  Si6  1  0.66666667  0.33333333  0.89989666  1
  Si  Si7  1  0.00000000  0.00000000  0.80001411  1
  Si  Si8  1  0.66666667  0.33333333  0.10002259  1
  Si  Si9  1  0.66666667  0.33333333  0.49997520  1
  C  C10  1  0.33333333  0.66666667  0.77519877  1
  C  C11  1  0.33333333  0.66666667  0.07520352  1
  C  C12  1  0.00000000  0.00000000  0.67493960  1
  C  C13  1  0.00000000  0.00000000  0.27488378  1
  C  C14  1  0.66666667  0.33333333  0.17502358  1
  C  C15  1  0.66666667  0.33333333  0.57518474  1
  C  C16  1  0.00000000  0.00000000  0.47490870  1
  C  C17  1  0.66666667  0.33333333  0.97490110  1
  C  C18  1  0.33333333  0.66666667  0.37514153  1
  C  C19  1  0.00000000  0.00000000  0.87500384  1
