# generated using pymatgen
data_SiC
_symmetry_space_group_name_H-M   'P 1'
_cell_length_a   3.09450045
_cell_length_b   3.09450046
_cell_length_c   37.97028848
_cell_angle_alpha   90.00000000
_cell_angle_beta   90.00000000
_cell_angle_gamma   120.00000000
_symmetry_Int_Tables_number   1
_chemical_formula_structural   SiC
_chemical_formula_sum   'Si15 C15'
_cell_volume   314.88765168
_cell_formula_units_Z   15
loop_
 _symmetry_equiv_pos_site_id
 _symmetry_equiv_pos_as_xyz
  1  'x, y, z'
loop_
 _atom_site_type_symbol
 _atom_site_label
 _atom_site_symmetry_multiplicity
 _atom_site_fract_x
 _atom_site_fract_y
 _atom_site_fract_z
 _atom_site_occupancy
  Si  Si0  1  0.00000000  0.00000000  0.08335153  1
  Si  Si1  1  0.33333333  0.66666667  0.01666891  1
  Si  Si2  1  0.33333333  0.66666667  0.21663043  1
  Si  Si3  1  0.66666667  0.33333333  0.14993128  1
  Si  Si4  1  0.66666667  0.33333333  0.28329675  1
  Si  Si5  1  0.66666667  0.33333333  0.41668486  1
  Si  Si6  1  0.00000000  0.00000000  0.35000224  1
  Si  Si7  1  0.00000000  0.00000000  0.54996376  1
  Si  Si8  1  0.33333333  0.66666667  0.48326462  1
  Si  Si9  1  0.33333333  0.66666667  0.61663009  1
  Si  Si10  1  0.33333333  0.66666667  0.75001820  1
  Si  Si11  1  0.66666667  0.33333333  0.68333557  1
  Si  Si12  1  0.66666667  0.33333333  0.88329709  1
  Si  Si13  1  0.00000000  0.00000000  0.81659795  1
  Si  Si14  1  0.00000000  0.00000000  0.94996342  1
  C  C15  1  0.00000000  0.00000000  0.13334660  1
  C  C16  1  0.33333333  0.66666667  0.06680374  1
  C  C17  1  0.33333333  0.66666667  0.26676629  1
  C  C18  1  0.66666667  0.33333333  0.19992488  1
  C  C19  1  0.66666667  0.33333333  0.33327959  1
  C  C20  1  0.66666667  0.33333333  0.46667993  1
  C  C21  1  0.00000000  0.00000000  0.40013707  1
  C  C22  1  0.00000000  0.00000000  0.60009962  1
  C  C23  1  0.33333333  0.66666667  0.53325822  1
  C  C24  1  0.33333333  0.66666667  0.66661293  1
  C  C25  1  0.33333333  0.66666667  0.80001327  1
  C  C26  1  0.66666667  0.33333333  0.73347040  1
  C  C27  1  0.66666667  0.33333333  0.93343295  1
  C  C28  1  0.00000000  0.00000000  0.86659155  1
  C  C29  1  0.00000000  0.00000000  0.99994626  1
