# generated using pymatgen
data_SiC
_symmetry_space_group_name_H-M   'P 1'
_cell_length_a   6.18889994
_cell_length_b   3.09447468
_cell_length_c   25.31398668
_cell_angle_alpha   90.00000001
_cell_angle_beta   90.00001679
_cell_angle_gamma   120.00026424
_symmetry_Int_Tables_number   1
_chemical_formula_structural   SiC
_chemical_formula_sum   'Si20 C20'
_cell_volume   419.84638440
_cell_formula_units_Z   20
loop_
 _symmetry_equiv_pos_site_id
 _symmetry_equiv_pos_as_xyz
  1  'x, y, z'
loop_
 _atom_site_type_symbol
 _atom_site_label
 _atom_site_symmetry_multiplicity
 _atom_site_fract_x
 _atom_site_fract_y
 _atom_site_fract_z
 _atom_site_occupancy
  Si  Si0  1  0.00000058  0.00000058  0.19989617  1
  Si  Si1  1  0.99999926  0.99999926  0.39992542  1
  Si  Si2  1  0.16666723  0.66666724  0.29993340  1
  Si  Si3  1  0.00000125  0.00000125  0.59997609  1
  Si  Si4  1  0.16666564  0.66666565  0.99998532  1
  Si  Si5  1  0.16666810  0.66666811  0.70001274  1
  Si  Si6  1  0.33333241  0.33333240  0.89990128  1
  Si  Si7  1  0.99999865  0.99999865  0.80001832  1
  Si  Si8  1  0.33333439  0.33333438  0.10002721  1
  Si  Si9  1  0.33333251  0.33333250  0.49997873  1
  Si  Si10  1  0.50000058  0.00000058  0.19989617  1
  Si  Si11  1  0.49999926  0.99999926  0.39992542  1
  Si  Si12  1  0.66666724  0.66666724  0.29993340  1
  Si  Si13  1  0.50000125  0.00000125  0.59997609  1
  Si  Si14  1  0.66666565  0.66666565  0.99998532  1
  Si  Si15  1  0.66666811  0.66666811  0.70001274  1
  Si  Si16  1  0.83333240  0.33333240  0.89990128  1
  Si  Si17  1  0.49999865  0.99999865  0.80001832  1
  Si  Si18  1  0.83333438  0.33333438  0.10002721  1
  Si  Si19  1  0.83333250  0.33333250  0.49997873  1
  C  C20  1  0.16666683  0.66666684  0.77519424  1
  C  C21  1  0.16666666  0.66666667  0.07519860  1
  C  C22  1  0.99999848  0.99999848  0.67493640  1
  C  C23  1  0.99999931  0.99999931  0.27488035  1
  C  C24  1  0.33333273  0.33333272  0.17501962  1
  C  C25  1  0.33333322  0.33333321  0.57518084  1
  C  C26  1  0.00000094  0.00000094  0.47490544  1
  C  C27  1  0.33333446  0.33333445  0.97489686  1
  C  C28  1  0.16666646  0.66666647  0.37513729  1
  C  C29  1  0.00000089  0.00000089  0.87499967  1
  C  C30  1  0.66666684  0.66666684  0.77519424  1
  C  C31  1  0.66666667  0.66666667  0.07519860  1
  C  C32  1  0.49999848  0.99999848  0.67493640  1
  C  C33  1  0.49999931  0.99999931  0.27488035  1
  C  C34  1  0.83333272  0.33333272  0.17501962  1
  C  C35  1  0.83333321  0.33333321  0.57518084  1
  C  C36  1  0.50000094  0.00000094  0.47490544  1
  C  C37  1  0.83333445  0.33333445  0.97489686  1
  C  C38  1  0.66666647  0.66666647  0.37513729  1
  C  C39  1  0.50000089  0.00000089  0.87499967  1
