# generated using pymatgen
data_SiC
_symmetry_space_group_name_H-M   'P 1'
_cell_length_a   6.18354656
_cell_length_b   6.18354655
_cell_length_c   10.14771413
_cell_angle_alpha   90.00000000
_cell_angle_beta   90.00000000
_cell_angle_gamma   120.00000003
_symmetry_Int_Tables_number   1
_chemical_formula_structural   SiC
_chemical_formula_sum   'Si16 C16'
_cell_volume   336.02696227
_cell_formula_units_Z   16
loop_
 _symmetry_equiv_pos_site_id
 _symmetry_equiv_pos_as_xyz
  1  'x, y, z'
loop_
 _atom_site_type_symbol
 _atom_site_label
 _atom_site_symmetry_multiplicity
 _atom_site_fract_x
 _atom_site_fract_y
 _atom_site_fract_z
 _atom_site_occupancy
  Si  Si0  1  0.16666666  0.33333334  0.24981129  1
  Si  Si1  1  0.33333334  0.16666666  0.49981129  1
  Si  Si2  1  0.16666666  0.33333334  0.74981129  1
  Si  Si3  1  0.33333334  0.16666666  0.99981129  1
  Si  Si4  1  0.16666666  0.83333333  0.24981129  1
  Si  Si5  1  0.33333334  0.66666667  0.49981129  1
  Si  Si6  1  0.16666666  0.83333333  0.74981129  1
  Si  Si7  1  0.33333334  0.66666667  0.99981129  1
  Si  Si8  1  0.66666667  0.33333334  0.24981129  1
  Si  Si9  1  0.83333333  0.16666666  0.49981129  1
  Si  Si10  1  0.66666667  0.33333334  0.74981129  1
  Si  Si11  1  0.83333333  0.16666666  0.99981129  1
  Si  Si12  1  0.66666667  0.83333333  0.24981129  1
  Si  Si13  1  0.83333333  0.66666667  0.49981129  1
  Si  Si14  1  0.66666667  0.83333333  0.74981129  1
  Si  Si15  1  0.83333333  0.66666667  0.99981129  1
  C  C16  1  0.16666666  0.33333334  0.43768871  1
  C  C17  1  0.33333334  0.16666666  0.18768871  1
  C  C18  1  0.16666666  0.33333334  0.93768871  1
  C  C19  1  0.33333334  0.16666666  0.68768871  1
  C  C20  1  0.16666666  0.83333333  0.43768871  1
  C  C21  1  0.33333334  0.66666667  0.18768871  1
  C  C22  1  0.16666666  0.83333333  0.93768871  1
  C  C23  1  0.33333334  0.66666667  0.68768871  1
  C  C24  1  0.66666667  0.33333334  0.43768871  1
  C  C25  1  0.83333333  0.16666666  0.18768871  1
  C  C26  1  0.66666667  0.33333334  0.93768871  1
  C  C27  1  0.83333333  0.16666666  0.68768871  1
  C  C28  1  0.66666667  0.83333333  0.43768871  1
  C  C29  1  0.83333333  0.66666667  0.18768871  1
  C  C30  1  0.66666667  0.83333333  0.93768871  1
  C  C31  1  0.83333333  0.66666667  0.68768871  1
