# generated using pymatgen
data_TcC
_symmetry_space_group_name_H-M   'P 1'
_cell_length_a   4.31544934
_cell_length_b   4.31544934
_cell_length_c   4.31544934
_cell_angle_alpha   90.00000000
_cell_angle_beta   90.00000000
_cell_angle_gamma   90.00000000
_symmetry_Int_Tables_number   1
_chemical_formula_structural   TcC
_chemical_formula_sum   'Tc4 C4'
_cell_volume   80.36705758
_cell_formula_units_Z   4
loop_
 _symmetry_equiv_pos_site_id
 _symmetry_equiv_pos_as_xyz
  1  'x, y, z'
loop_
 _atom_site_type_symbol
 _atom_site_label
 _atom_site_symmetry_multiplicity
 _atom_site_fract_x
 _atom_site_fract_y
 _atom_site_fract_z
 _atom_site_occupancy
  C  C0  1  0.50000000  0.50000000  0.50000000  1
  C  C1  1  0.50000000  0.00000000  0.00000000  1
  C  C2  1  0.00000000  0.50000000  0.00000000  1
  C  C3  1  0.00000000  0.00000000  0.50000000  1
  Tc  Tc4  1  0.00000000  0.00000000  0.00000000  1
  Tc  Tc5  1  0.00000000  0.50000000  0.50000000  1
  Tc  Tc6  1  0.50000000  0.00000000  0.50000000  1
  Tc  Tc7  1  0.50000000  0.50000000  0.00000000  1
