# generated using pymatgen
data_ZrTaC2
_symmetry_space_group_name_H-M   'P 1'
_cell_length_a   9.17443243
_cell_length_b   9.17591430
_cell_length_c   4.57897265
_cell_angle_alpha   90.00000000
_cell_angle_beta   90.00000000
_cell_angle_gamma   89.94023574
_symmetry_Int_Tables_number   1
_chemical_formula_structural   ZrTaC2
_chemical_formula_sum   'Zr8 Ta8 C16'
_cell_volume   385.47513438
_cell_formula_units_Z   8
loop_
 _symmetry_equiv_pos_site_id
 _symmetry_equiv_pos_as_xyz
  1  'x, y, z'
loop_
 _atom_site_type_symbol
 _atom_site_label
 _atom_site_symmetry_multiplicity
 _atom_site_fract_x
 _atom_site_fract_y
 _atom_site_fract_z
 _atom_site_occupancy
  Zr  Zr0  1  0.00094533  0.99911776  0.00000000  1
  Zr  Zr1  1  0.00113280  0.25037868  0.50000000  1
  Zr  Zr2  1  0.25006361  0.49988080  0.50000000  1
  Zr  Zr3  1  0.25049665  0.75041769  0.00000000  1
  Zr  Zr4  1  0.49934452  0.24943016  0.50000000  1
  Zr  Zr5  1  0.74911040  0.99830033  0.50000000  1
  Zr  Zr6  1  0.74977801  0.25065387  0.00000000  1
  Zr  Zr7  1  0.75004134  0.50135537  0.50000000  1
  Ta  Ta8  1  0.25022035  -0.00008254  0.50000000  1
  Ta  Ta9  1  0.24978521  0.24987560  0.00000000  1
  Ta  Ta10  1  0.99947858  0.50034456  0.00000000  1
  Ta  Ta11  1  0.99953746  0.74991912  0.50000000  1
  Ta  Ta12  1  0.49974562  0.00086913  0.00000000  1
  Ta  Ta13  1  0.50025409  0.49981132  0.00000000  1
  Ta  Ta14  1  0.50016265  0.75017741  0.50000000  1
  Ta  Ta15  1  0.74933535  0.74973094  0.00000000  1
  C  C16  1  0.00574488  0.99408991  0.50000000  1
  C  C17  1  0.00636343  0.25500679  0.00000000  1
  C  C18  1  0.25466389  0.00315679  0.00000000  1
  C  C19  1  0.25058390  0.24559695  0.50000000  1
  C  C20  1  0.00025736  0.50564112  0.50000000  1
  C  C21  1  0.99612578  0.74582512  0.00000000  1
  C  C22  1  0.25039374  0.49630388  0.00000000  1
  C  C23  1  0.25100679  0.75449430  0.50000000  1
  C  C24  1  0.49522103  0.99522255  0.50000000  1
  C  C25  1  0.49433300  0.24919805  0.00000000  1
  C  C26  1  0.74411529  0.99283246  0.00000000  1
  C  C27  1  0.74947357  0.25035723  0.50000000  1
  C  C28  1  0.49968119  0.50571049  0.50000000  1
  C  C29  1  0.50358750  0.75038628  0.00000000  1
  C  C30  1  0.74983930  0.50655677  0.00000000  1
  C  C31  1  0.74917739  0.74944109  0.50000000  1
