# generated using pymatgen
data_ZrTiC2
_symmetry_space_group_name_H-M   'P 1'
_cell_length_a   9.06806315
_cell_length_b   9.06718783
_cell_length_c   4.55368315
_cell_angle_alpha   90.00000000
_cell_angle_beta   90.00000000
_cell_angle_gamma   89.96484594
_symmetry_Int_Tables_number   1
_chemical_formula_structural   ZrTiC2
_chemical_formula_sum   'Zr8 Ti8 C16'
_cell_volume   374.41209958
_cell_formula_units_Z   8
loop_
 _symmetry_equiv_pos_site_id
 _symmetry_equiv_pos_as_xyz
  1  'x, y, z'
loop_
 _atom_site_type_symbol
 _atom_site_label
 _atom_site_symmetry_multiplicity
 _atom_site_fract_x
 _atom_site_fract_y
 _atom_site_fract_z
 _atom_site_occupancy
  Ti  Ti0  1  0.99659205  0.00443803  0.00000000  1
  Ti  Ti1  1  0.99776724  0.24825379  0.50000000  1
  Ti  Ti2  1  0.00173327  0.49708164  0.00000000  1
  Ti  Ti3  1  0.24483655  0.49978406  0.50000000  1
  Ti  Ti4  1  0.24672340  0.74978303  0.00000000  1
  Ti  Ti5  1  0.50271736  0.00155580  0.00000000  1
  Ti  Ti6  1  0.75364099  0.00432026  0.50000000  1
  Ti  Ti7  1  0.75509889  0.24578416  0.00000000  1
  Zr  Zr8  1  0.24740167  0.99942399  0.50000000  1
  Zr  Zr9  1  0.24443290  0.25086704  0.00000000  1
  Zr  Zr10  1  0.00226117  0.75015062  0.50000000  1
  Zr  Zr11  1  0.50299585  0.24681031  0.50000000  1
  Zr  Zr12  1  0.49715554  0.49996306  0.00000000  1
  Zr  Zr13  1  0.49819263  0.75255522  0.50000000  1
  Zr  Zr14  1  0.75549236  0.49523054  0.50000000  1
  Zr  Zr15  1  0.75224461  0.75482002  0.00000000  1
  C  C16  1  0.99349380  0.00705777  0.50000000  1
  C  C17  1  0.99335654  0.24862700  0.00000000  1
  C  C18  1  0.24738708  0.99525149  0.00000000  1
  C  C19  1  0.24216402  0.25493210  0.50000000  1
  C  C20  1  0.00654567  0.49332101  0.50000000  1
  C  C21  1  0.00624420  0.75096281  0.00000000  1
  C  C22  1  0.24182769  0.50501698  0.00000000  1
  C  C23  1  0.24863324  0.74466254  0.50000000  1
  C  C24  1  0.50596716  0.00062243  0.50000000  1
  C  C25  1  0.50549911  0.24270863  0.00000000  1
  C  C26  1  0.75251068  0.00748339  0.00000000  1
  C  C27  1  0.75806099  0.24254311  0.50000000  1
  C  C28  1  0.49470933  0.49913156  0.50000000  1
  C  C29  1  0.49455075  0.75684507  0.00000000  1
  C  C30  1  0.75804601  0.49330493  0.00000000  1
  C  C31  1  0.75171726  0.75670758  0.50000000  1
