# generated using pymatgen
data_ZrVC2
_symmetry_space_group_name_H-M   'P 1'
_cell_length_a   8.89713988
_cell_length_b   9.00074974
_cell_length_c   4.47984603
_cell_angle_alpha   90.00000000
_cell_angle_beta   90.00000000
_cell_angle_gamma   90.00000000
_symmetry_Int_Tables_number   1
_chemical_formula_structural   ZrVC2
_chemical_formula_sum   'Zr8 V8 C16'
_cell_volume   358.75023393
_cell_formula_units_Z   8
loop_
 _symmetry_equiv_pos_site_id
 _symmetry_equiv_pos_as_xyz
  1  'x, y, z'
loop_
 _atom_site_type_symbol
 _atom_site_label
 _atom_site_symmetry_multiplicity
 _atom_site_fract_x
 _atom_site_fract_y
 _atom_site_fract_z
 _atom_site_occupancy
  Zr  Zr0  1  0.00393116  0.00000000  -0.00000000  1
  Zr  Zr1  1  0.01067516  0.24721844  0.50000000  1
  Zr  Zr2  1  0.00943796  0.50000000  -0.00000000  1
  Zr  Zr3  1  0.01067516  0.75278156  0.50000000  1
  Zr  Zr4  1  0.74198637  0.24357389  0.00000000  1
  Zr  Zr5  1  0.49035149  0.50000000  -0.00000000  1
  Zr  Zr6  1  0.74334796  0.50000000  0.50000000  1
  Zr  Zr7  1  0.74198637  0.75642611  0.00000000  1
  V  V8  1  0.25983559  0.00000000  0.50000000  1
  V  V9  1  0.26086112  0.23030467  -0.00000000  1
  V  V10  1  0.25777260  0.50000000  0.50000000  1
  V  V11  1  0.26086112  0.76969533  -0.00000000  1
  V  V12  1  0.49505107  0.00000000  -0.00000000  1
  V  V13  1  0.49183972  0.22716123  0.50000000  1
  V  V14  1  0.72580278  0.00000000  0.50000000  1
  V  V15  1  0.49183972  0.77283877  0.50000000  1
  C  C16  1  0.01678315  0.00000000  0.50000000  1
  C  C17  1  0.01092741  0.24715594  -0.00000000  1
  C  C18  1  0.26209805  0.00000000  -0.00000000  1
  C  C19  1  0.26486775  0.24442561  0.50000000  1
  C  C20  1  0.01456925  0.50000000  0.50000000  1
  C  C21  1  0.01092741  0.75284406  -0.00000000  1
  C  C22  1  0.25268665  0.50000000  -0.00000000  1
  C  C23  1  0.26486775  0.75557439  0.50000000  1
  C  C24  1  0.49590814  0.00000000  0.50000000  1
  C  C25  1  0.48650455  0.23632474  -0.00000000  1
  C  C26  1  0.73489023  0.00000000  -0.00000000  1
  C  C27  1  0.73731422  0.23662120  0.50000000  1
  C  C28  1  0.48311127  0.50000000  0.50000000  1
  C  C29  1  0.48650455  0.76367526  -0.00000000  1
  C  C30  1  0.74447007  0.50000000  -0.00000000  1
  C  C31  1  0.73731422  0.76337880  0.50000000  1
