# generated using pymatgen
data_Zr2BC
_symmetry_space_group_name_H-M   'P 1'
_cell_length_a   9.60740103
_cell_length_b   9.59247018
_cell_length_c   4.80506468
_cell_angle_alpha   90.00000000
_cell_angle_beta   90.00000000
_cell_angle_gamma   90.00000000
_symmetry_Int_Tables_number   1
_chemical_formula_structural   Zr2BC
_chemical_formula_sum   'Zr16 B8 C8'
_cell_volume   442.82855223
_cell_formula_units_Z   8
loop_
 _symmetry_equiv_pos_site_id
 _symmetry_equiv_pos_as_xyz
  1  'x, y, z'
loop_
 _atom_site_type_symbol
 _atom_site_label
 _atom_site_symmetry_multiplicity
 _atom_site_fract_x
 _atom_site_fract_y
 _atom_site_fract_z
 _atom_site_occupancy
  Zr  Zr0  1  0.00006807  0.00843978  0.00000000  1
  Zr  Zr1  1  0.00750067  0.24296667  0.50000000  1
  Zr  Zr2  1  0.25000000  0.99993464  0.50000000  1
  Zr  Zr3  1  0.25000000  0.25646560  0.00000000  1
  Zr  Zr4  1  0.99970144  0.49170449  0.00000000  1
  Zr  Zr5  1  0.00846994  0.75982292  0.50000000  1
  Zr  Zr6  1  0.25000000  0.50021820  0.50000000  1
  Zr  Zr7  1  0.25000000  0.74085351  0.00000000  1
  Zr  Zr8  1  0.49993193  0.00843978  0.00000000  1
  Zr  Zr9  1  0.49249933  0.24296667  0.50000000  1
  Zr  Zr10  1  0.75000000  0.99985871  0.50000000  1
  Zr  Zr11  1  0.75000000  0.25757182  0.00000000  1
  Zr  Zr12  1  0.50029856  0.49170449  0.00000000  1
  Zr  Zr13  1  0.49153006  0.75982292  0.50000000  1
  Zr  Zr14  1  0.75000000  0.49996442  0.50000000  1
  Zr  Zr15  1  0.75000000  0.73947625  0.00000000  1
  C  C16  1  0.00185344  0.00190877  0.50000000  1
  C  C17  1  0.00188317  0.25014201  0.00000000  1
  C  C18  1  0.25000000  0.25059930  0.50000000  1
  C  C19  1  0.25000000  0.49824497  0.00000000  1
  C  C20  1  0.25000000  0.74959652  0.50000000  1
  C  C21  1  0.49814656  0.00190877  0.50000000  1
  C  C22  1  0.49811683  0.25014201  0.00000000  1
  C  C23  1  0.75000000  0.49764317  0.00000000  1
  B  B24  1  0.25000000  0.99934896  0.00000000  1
  B  B25  1  -0.00024861  0.50043236  0.50000000  1
  B  B26  1  0.99969051  0.75023084  0.00000000  1
  B  B27  1  0.75000000  -0.00033291  0.00000000  1
  B  B28  1  0.75000000  0.24947941  0.50000000  1
  B  B29  1  0.50024861  0.50043236  0.50000000  1
  B  B30  1  0.50030949  0.75023084  0.00000000  1
  B  B31  1  0.75000000  0.74978171  0.50000000  1
