# generated using pymatgen
data_HfZrC2
_symmetry_space_group_name_H-M   'P 1'
_cell_length_a   9.35843807
_cell_length_b   9.35809137
_cell_length_c   4.67842620
_cell_angle_alpha   90.00000000
_cell_angle_beta   90.00000000
_cell_angle_gamma   90.00105811
_symmetry_Int_Tables_number   1
_chemical_formula_structural   HfZrC2
_chemical_formula_sum   'Hf8 Zr8 C16'
_cell_volume   409.72308590
_cell_formula_units_Z   8
loop_
 _symmetry_equiv_pos_site_id
 _symmetry_equiv_pos_as_xyz
  1  'x, y, z'
loop_
 _atom_site_type_symbol
 _atom_site_label
 _atom_site_symmetry_multiplicity
 _atom_site_fract_x
 _atom_site_fract_y
 _atom_site_fract_z
 _atom_site_occupancy
  Zr  Zr0  1  0.99974899  0.99973628  0.00000000  1
  Zr  Zr1  1  0.24918271  0.24972911  0.00000000  1
  Zr  Zr2  1  0.24905848  0.50046079  0.50000000  1
  Zr  Zr3  1  0.50025023  0.99975237  0.00000000  1
  Zr  Zr4  1  0.50046066  0.24957625  0.50000000  1
  Zr  Zr5  1  0.50026120  0.50024837  0.00000000  1
  Zr  Zr6  1  0.50008758  0.75042569  0.50000000  1
  Zr  Zr7  1  0.75094215  0.50008620  0.50000000  1
  Hf  Hf8  1  0.99955004  0.24991944  0.50000000  1
  Hf  Hf9  1  0.24937541  0.99955135  0.50000000  1
  Hf  Hf10  1  0.99974574  0.50025698  0.00000000  1
  Hf  Hf11  1  0.99991659  0.75008064  0.50000000  1
  Hf  Hf12  1  0.24916766  0.75026532  0.00000000  1
  Hf  Hf13  1  0.75062426  0.99991560  0.50000000  1
  Hf  Hf14  1  0.75079535  0.24972388  0.00000000  1
  Hf  Hf15  1  0.75083214  0.75027324  0.00000000  1
  C  C16  1  0.99994889  0.99995135  0.50000000  1
  C  C17  1  0.99849516  0.25140180  0.00000000  1
  C  C18  1  0.24980086  0.99848034  0.00000000  1
  C  C19  1  0.24833428  0.24843415  0.50000000  1
  C  C20  1  0.99994548  0.50004648  0.50000000  1
  C  C21  1  0.99989534  0.74861738  0.00000000  1
  C  C22  1  0.24838412  0.50152355  0.00000000  1
  C  C23  1  0.24834390  0.75154856  0.50000000  1
  C  C24  1  0.50004430  0.99994675  0.50000000  1
  C  C25  1  0.50153817  0.24999416  0.00000000  1
  C  C26  1  0.75020795  0.99989848  0.00000000  1
  C  C27  1  0.75165280  0.24844342  0.50000000  1
  C  C28  1  0.50004775  0.50004993  0.50000000  1
  C  C29  1  0.50010791  0.75000691  0.00000000  1
  C  C30  1  0.75160640  0.50011165  0.00000000  1
  C  C31  1  0.75164747  0.75154356  0.50000000  1
