# generated using pymatgen
data_ZrNbC2
_symmetry_space_group_name_H-M   'P 1'
_cell_length_a   9.18823344
_cell_length_b   9.18444999
_cell_length_c   4.58609810
_cell_angle_alpha   90.00000000
_cell_angle_beta   90.00000000
_cell_angle_gamma   89.95158045
_symmetry_Int_Tables_number   1
_chemical_formula_structural   ZrNbC2
_chemical_formula_sum   'Zr8 Nb8 C16'
_cell_volume   387.01550057
_cell_formula_units_Z   8
loop_
 _symmetry_equiv_pos_site_id
 _symmetry_equiv_pos_as_xyz
  1  'x, y, z'
loop_
 _atom_site_type_symbol
 _atom_site_label
 _atom_site_symmetry_multiplicity
 _atom_site_fract_x
 _atom_site_fract_y
 _atom_site_fract_z
 _atom_site_occupancy
  Nb  Nb0  1  0.99996422  0.99839646  0.00000000  1
  Nb  Nb1  1  0.00019333  0.74993397  0.50000000  1
  Nb  Nb2  1  0.25156223  0.50207774  0.50000000  1
  Nb  Nb3  1  0.25003979  0.74928615  0.00000000  1
  Nb  Nb4  1  0.75149119  0.99941681  0.50000000  1
  Nb  Nb5  1  0.49846305  0.50138207  0.00000000  1
  Nb  Nb6  1  0.49979464  0.74870812  0.50000000  1
  Nb  Nb7  1  0.74810912  0.50072488  0.50000000  1
  Zr  Zr8  1  0.99954586  0.24963099  0.50000000  1
  Zr  Zr9  1  0.24879415  0.99762761  0.50000000  1
  Zr  Zr10  1  0.24996750  0.25177385  0.00000000  1
  Zr  Zr11  1  0.00094110  0.50200119  0.00000000  1
  Zr  Zr12  1  0.50065140  0.99782386  0.00000000  1
  Zr  Zr13  1  0.50040284  0.25221799  0.50000000  1
  Zr  Zr14  1  0.75007395  0.25020974  0.00000000  1
  Zr  Zr15  1  0.74994987  0.74952964  0.00000000  1
  C  C16  1  0.99689174  0.99512739  0.50000000  1
  C  C17  1  0.99952563  0.24619574  0.00000000  1
  C  C18  1  0.24570140  0.99323734  0.00000000  1
  C  C19  1  0.24999025  0.25526916  0.50000000  1
  C  C20  1  0.00052788  0.50566439  0.50000000  1
  C  C21  1  0.00288368  0.75309362  0.00000000  1
  C  C22  1  0.25355453  0.50548957  0.00000000  1
  C  C23  1  0.24995374  0.74613282  0.50000000  1
  C  C24  1  0.50399360  0.99372885  0.50000000  1
  C  C25  1  0.50042651  0.25581988  0.00000000  1
  C  C26  1  0.75390795  0.99825123  0.00000000  1
  C  C27  1  0.75005058  0.25010917  0.50000000  1
  C  C28  1  0.49934682  0.50443549  0.50000000  1
  C  C29  1  0.49706906  0.74532693  0.00000000  1
  C  C30  1  0.74609992  0.50156108  0.00000000  1
  C  C31  1  0.75013246  0.74981626  0.50000000  1
