# generated using pymatgen
data_ZrAlC2
_symmetry_space_group_name_H-M   'P 1'
_cell_length_a   9.07122886
_cell_length_b   8.97010991
_cell_length_c   4.61319653
_cell_angle_alpha   90.00000000
_cell_angle_beta   90.00000000
_cell_angle_gamma   90.50106161
_symmetry_Int_Tables_number   1
_chemical_formula_structural   ZrAlC2
_chemical_formula_sum   'Zr8 Al8 C16'
_cell_volume   375.36107803
_cell_formula_units_Z   8
loop_
 _symmetry_equiv_pos_site_id
 _symmetry_equiv_pos_as_xyz
  1  'x, y, z'
loop_
 _atom_site_type_symbol
 _atom_site_label
 _atom_site_symmetry_multiplicity
 _atom_site_fract_x
 _atom_site_fract_y
 _atom_site_fract_z
 _atom_site_occupancy
  Zr  Zr0  1  0.00970579  0.99061216  0.00000000  1
  Zr  Zr1  1  0.00509326  0.25093719  0.50000000  1
  Zr  Zr2  1  0.25819823  0.26583129  0.00000000  1
  Zr  Zr3  1  0.49768252  0.00392475  0.00000000  1
  Zr  Zr4  1  0.75137020  0.24942126  0.00000000  1
  Zr  Zr5  1  0.48523188  0.74501396  0.50000000  1
  Zr  Zr6  1  0.74816843  0.49952056  0.50000000  1
  Zr  Zr7  1  0.75272152  0.74964470  0.00000000  1
  Al  Al8  1  0.25104197  0.00242121  0.50000000  1
  Al  Al9  1  0.00689345  0.50231364  0.00000000  1
  Al  Al10  1  0.00293617  0.74657526  0.50000000  1
  Al  Al11  1  0.24564789  0.50329362  0.50000000  1
  Al  Al12  1  0.24674907  0.74787592  0.00000000  1
  Al  Al13  1  0.49805135  0.25002580  0.50000000  1
  Al  Al14  1  0.74868832  0.99727874  0.50000000  1
  Al  Al15  1  0.49777663  0.50143736  0.00000000  1
  C  C16  1  0.00609065  0.99275057  0.50000000  1
  C  C17  1  0.00534256  0.24788657  0.00000000  1
  C  C18  1  0.25262211  0.99992596  0.00000000  1
  C  C19  1  0.25385529  0.25548343  0.50000000  1
  C  C20  1  0.00692987  0.50805332  0.50000000  1
  C  C21  1  0.00748280  0.73759356  0.00000000  1
  C  C22  1  0.24944146  0.51372435  0.00000000  1
  C  C23  1  0.23549971  0.74750342  0.50000000  1
  C  C24  1  0.49402183  0.00205722  0.50000000  1
  C  C25  1  0.50233522  0.25574096  0.00000000  1
  C  C26  1  0.75103586  0.99892855  0.00000000  1
  C  C27  1  0.75035792  0.24482682  0.50000000  1
  C  C28  1  0.48953995  0.49024499  0.50000000  1
  C  C29  1  0.49411539  0.74642942  0.00000000  1
  C  C30  1  0.74776173  0.49989895  0.00000000  1
  C  C31  1  0.74761098  0.75282452  0.50000000  1
