# generated using pymatgen
data_ZrWC2
_symmetry_space_group_name_H-M   'P 1'
_cell_length_a   9.04719926
_cell_length_b   9.09250606
_cell_length_c   4.53234604
_cell_angle_alpha   90.00000000
_cell_angle_beta   90.00000000
_cell_angle_gamma   90.04371907
_symmetry_Int_Tables_number   1
_chemical_formula_structural   ZrWC2
_chemical_formula_sum   'Zr8 W8 C16'
_cell_volume   372.83844547
_cell_formula_units_Z   8
loop_
 _symmetry_equiv_pos_site_id
 _symmetry_equiv_pos_as_xyz
  1  'x, y, z'
loop_
 _atom_site_type_symbol
 _atom_site_label
 _atom_site_symmetry_multiplicity
 _atom_site_fract_x
 _atom_site_fract_y
 _atom_site_fract_z
 _atom_site_occupancy
  W  W0  1  0.00513313  0.01272724  0.00000000  1
  W  W1  1  0.00333453  0.26628933  0.50000000  1
  W  W2  1  0.24448437  0.98666068  0.50000000  1
  W  W3  1  0.25433735  0.24482591  0.00000000  1
  W  W4  1  0.99883632  0.72746791  0.50000000  1
  W  W5  1  0.25971887  0.51477636  0.50000000  1
  W  W6  1  0.73493055  0.24995411  0.00000000  1
  W  W7  1  0.74069506  0.49578772  0.50000000  1
  C  C8  1  0.00976652  0.00532504  0.50000000  1
  C  C9  1  0.99868791  0.24349468  0.00000000  1
  C  C10  1  0.24383908  0.00486257  0.00000000  1
  C  C11  1  0.23910213  0.24676217  0.50000000  1
  C  C12  1  0.00141360  0.49836833  0.50000000  1
  C  C13  1  0.00088650  0.75257426  0.00000000  1
  C  C14  1  0.24958105  0.49306702  0.00000000  1
  C  C15  1  0.24383151  0.75011025  0.50000000  1
  C  C16  1  0.49151784  0.00149849  0.50000000  1
  C  C17  1  0.49739424  0.25092822  0.00000000  1
  C  C18  1  0.75959484  0.00977718  0.00000000  1
  C  C19  1  0.75422623  0.25610178  0.50000000  1
  C  C20  1  0.49862510  0.49858824  0.50000000  1
  C  C21  1  0.50141219  0.75029750  0.00000000  1
  C  C22  1  0.75019554  0.49213587  0.00000000  1
  C  C23  1  0.76023346  0.74472055  0.50000000  1
  Zr  Zr24  1  0.00063933  0.49284094  0.00000000  1
  Zr  Zr25  1  0.24627563  0.75210225  0.00000000  1
  Zr  Zr26  1  0.49811773  -0.00006380  0.00000000  1
  Zr  Zr27  1  0.49392018  0.24793308  0.50000000  1
  Zr  Zr28  1  0.76021346  0.00758485  0.50000000  1
  Zr  Zr29  1  0.49888338  0.50030208  0.00000000  1
  Zr  Zr30  1  0.50364895  0.75124243  0.50000000  1
  Zr  Zr31  1  0.75652343  0.75095676  0.00000000  1
