# generated using pymatgen
data_Ti3AlC2
_symmetry_space_group_name_H-M   'P 1'
_cell_length_a   6.15728996
_cell_length_b   6.15728994
_cell_length_c   18.64921129
_cell_angle_alpha   90.00000000
_cell_angle_beta   90.00000000
_cell_angle_gamma   119.99999998
_symmetry_Int_Tables_number   1
_chemical_formula_structural   Ti3AlC2
_chemical_formula_sum   'Ti24 Al8 C16'
_cell_volume   612.30853318
_cell_formula_units_Z   8
loop_
 _symmetry_equiv_pos_site_id
 _symmetry_equiv_pos_as_xyz
  1  'x, y, z'
loop_
 _atom_site_type_symbol
 _atom_site_label
 _atom_site_symmetry_multiplicity
 _atom_site_fract_x
 _atom_site_fract_y
 _atom_site_fract_z
 _atom_site_occupancy
  Ti  Ti0  1  0.16666667  0.33333335  0.87308070  1
  Ti  Ti1  1  0.33333335  0.16666667  0.37308070  1
  Ti  Ti2  1  0.33333335  0.16666667  0.12691931  1
  Ti  Ti3  1  0.16666667  0.33333335  0.62691930  1
  Ti  Ti4  1  0.00000000  0.00000000  0.00000000  1
  Ti  Ti5  1  0.00000000  0.00000000  0.50000000  1
  Ti  Ti6  1  0.16666667  0.83333335  0.87308070  1
  Ti  Ti7  1  0.33333335  0.66666667  0.37308070  1
  Ti  Ti8  1  0.33333335  0.66666667  0.12691931  1
  Ti  Ti9  1  0.16666667  0.83333335  0.62691930  1
  Ti  Ti10  1  0.00000000  0.50000000  0.00000000  1
  Ti  Ti11  1  0.00000000  0.50000000  0.50000000  1
  Ti  Ti12  1  0.66666667  0.33333335  0.87308070  1
  Ti  Ti13  1  0.83333335  0.16666667  0.37308070  1
  Ti  Ti14  1  0.83333335  0.16666667  0.12691931  1
  Ti  Ti15  1  0.66666667  0.33333335  0.62691930  1
  Ti  Ti16  1  0.50000000  0.00000000  0.00000000  1
  Ti  Ti17  1  0.50000000  0.00000000  0.50000000  1
  Ti  Ti18  1  0.66666667  0.83333335  0.87308070  1
  Ti  Ti19  1  0.83333335  0.66666667  0.37308070  1
  Ti  Ti20  1  0.83333335  0.66666667  0.12691931  1
  Ti  Ti21  1  0.66666667  0.83333335  0.62691930  1
  Ti  Ti22  1  0.50000000  0.50000000  0.00000000  1
  Ti  Ti23  1  0.50000000  0.50000000  0.50000000  1
  Al  Al24  1  0.00000000  0.00000000  0.25000000  1
  Al  Al25  1  0.00000000  0.00000000  0.75000000  1
  Al  Al26  1  0.00000000  0.50000000  0.25000000  1
  Al  Al27  1  0.00000000  0.50000000  0.75000000  1
  Al  Al28  1  0.50000000  0.00000000  0.25000000  1
  Al  Al29  1  0.50000000  0.00000000  0.75000000  1
  Al  Al30  1  0.50000000  0.50000000  0.25000000  1
  Al  Al31  1  0.50000000  0.50000000  0.75000000  1
  C  C32  1  0.33333335  0.16666667  0.93069299  1
  C  C33  1  0.16666667  0.33333335  0.43069299  1
  C  C34  1  0.33333335  0.16666667  0.56930701  1
  C  C35  1  0.16666667  0.33333335  0.06930702  1
  C  C36  1  0.33333335  0.66666667  0.93069299  1
  C  C37  1  0.16666667  0.83333335  0.43069299  1
  C  C38  1  0.33333335  0.66666667  0.56930701  1
  C  C39  1  0.16666667  0.83333335  0.06930702  1
  C  C40  1  0.83333335  0.16666667  0.93069299  1
  C  C41  1  0.66666667  0.33333335  0.43069299  1
  C  C42  1  0.83333335  0.16666667  0.56930701  1
  C  C43  1  0.66666667  0.33333335  0.06930702  1
  C  C44  1  0.83333335  0.66666667  0.93069299  1
  C  C45  1  0.66666667  0.83333335  0.43069299  1
  C  C46  1  0.83333335  0.66666667  0.56930701  1
  C  C47  1  0.66666667  0.83333335  0.06930702  1
