# generated using pymatgen
data_ZrMoC2
_symmetry_space_group_name_H-M   'P 1'
_cell_length_a   9.05778040
_cell_length_b   9.15410793
_cell_length_c   4.52009463
_cell_angle_alpha   90.00000000
_cell_angle_beta   90.00000000
_cell_angle_gamma   89.27696611
_symmetry_Int_Tables_number   1
_chemical_formula_structural   ZrMoC2
_chemical_formula_sum   'Zr8 Mo8 C16'
_cell_volume   374.75787015
_cell_formula_units_Z   8
loop_
 _symmetry_equiv_pos_site_id
 _symmetry_equiv_pos_as_xyz
  1  'x, y, z'
loop_
 _atom_site_type_symbol
 _atom_site_label
 _atom_site_symmetry_multiplicity
 _atom_site_fract_x
 _atom_site_fract_y
 _atom_site_fract_z
 _atom_site_occupancy
  Mo  Mo0  1  0.99509005  0.97830208  0.00000000  1
  Mo  Mo1  1  0.00613368  0.28133910  0.50000000  1
  Mo  Mo2  1  0.23687713  0.26499094  0.00000000  1
  Mo  Mo3  1  0.00229722  0.49865690  0.00000000  1
  Mo  Mo4  1  0.99724022  0.76200562  0.50000000  1
  Mo  Mo5  1  0.26716790  0.49874178  0.50000000  1
  Mo  Mo6  1  0.76259588  0.98569306  0.50000000  1
  Mo  Mo7  1  0.73248959  0.49965814  0.50000000  1
  Zr  Zr8  1  0.23695630  0.00694199  0.50000000  1
  Zr  Zr9  1  0.24362165  0.74495436  0.00000000  1
  Zr  Zr10  1  0.49838182  0.00087908  0.00000000  1
  Zr  Zr11  1  0.50159628  0.24683043  0.50000000  1
  Zr  Zr12  1  0.76326185  0.24657338  0.00000000  1
  Zr  Zr13  1  0.49984282  0.49601716  0.00000000  1
  Zr  Zr14  1  0.49790680  0.75136063  0.50000000  1
  Zr  Zr15  1  0.75206770  0.74428205  0.00000000  1
  C  C16  1  0.99176816  0.00454490  0.50000000  1
  C  C17  1  0.00837778  0.25095105  0.00000000  1
  C  C18  1  0.23615814  0.00408759  0.00000000  1
  C  C19  1  0.24317524  0.26117315  0.50000000  1
  C  C20  1  0.00356953  0.50485523  0.50000000  1
  C  C21  1  0.99730887  0.74639689  0.00000000  1
  C  C22  1  0.24506942  0.49581023  0.00000000  1
  C  C23  1  0.24081108  0.74242422  0.50000000  1
  C  C24  1  0.49978055  0.00057506  0.50000000  1
  C  C25  1  0.50184644  0.24815750  0.00000000  1
  C  C26  1  0.75745769  0.99432479  0.00000000  1
  C  C27  1  0.76431709  0.25378491  0.50000000  1
  C  C28  1  0.50133584  0.49799199  0.50000000  1
  C  C29  1  0.49912369  0.75027892  0.00000000  1
  C  C30  1  0.75766883  0.49655186  0.00000000  1
  C  C31  1  0.75870474  0.74086505  0.50000000  1
