# generated using pymatgen
data_AlV2C
_symmetry_space_group_name_H-M   'P 1'
_cell_length_a   8.72653765
_cell_length_b   5.81769175
_cell_length_c   13.12061132
_cell_angle_alpha   90.00000000
_cell_angle_beta   90.00000000
_cell_angle_gamma   119.99999994
_symmetry_Int_Tables_number   1
_chemical_formula_structural   AlV2C
_chemical_formula_sum   'Al12 V24 C12'
_cell_volume   576.86923136
_cell_formula_units_Z   12
loop_
 _symmetry_equiv_pos_site_id
 _symmetry_equiv_pos_as_xyz
  1  'x, y, z'
loop_
 _atom_site_type_symbol
 _atom_site_label
 _atom_site_symmetry_multiplicity
 _atom_site_fract_x
 _atom_site_fract_y
 _atom_site_fract_z
 _atom_site_occupancy
  Al  Al0  1  0.22222223  0.16666667  0.25000000  1
  Al  Al1  1  0.11111111  0.33333335  0.75000000  1
  Al  Al2  1  0.22222223  0.66666667  0.25000000  1
  Al  Al3  1  0.11111111  0.83333335  0.75000000  1
  Al  Al4  1  0.55555556  0.16666667  0.25000000  1
  Al  Al5  1  0.44444445  0.33333335  0.75000000  1
  Al  Al6  1  0.55555556  0.66666667  0.25000000  1
  Al  Al7  1  0.44444445  0.83333335  0.75000000  1
  Al  Al8  1  0.88888890  0.16666667  0.25000000  1
  Al  Al9  1  0.77777778  0.33333335  0.75000000  1
  Al  Al10  1  0.88888890  0.66666667  0.25000000  1
  Al  Al11  1  0.77777778  0.83333335  0.75000000  1
  V  V12  1  0.22222223  0.16666667  0.91474556  1
  V  V13  1  0.11111111  0.33333335  0.08525445  1
  V  V14  1  0.11111111  0.33333335  0.41474556  1
  V  V15  1  0.22222223  0.16666667  0.58525444  1
  V  V16  1  0.22222223  0.66666667  0.91474556  1
  V  V17  1  0.11111111  0.83333335  0.08525445  1
  V  V18  1  0.11111111  0.83333335  0.41474556  1
  V  V19  1  0.22222223  0.66666667  0.58525444  1
  V  V20  1  0.55555556  0.16666667  0.91474556  1
  V  V21  1  0.44444445  0.33333335  0.08525445  1
  V  V22  1  0.44444445  0.33333335  0.41474556  1
  V  V23  1  0.55555556  0.16666667  0.58525444  1
  V  V24  1  0.55555556  0.66666667  0.91474556  1
  V  V25  1  0.44444445  0.83333335  0.08525445  1
  V  V26  1  0.44444445  0.83333335  0.41474556  1
  V  V27  1  0.55555556  0.66666667  0.58525444  1
  V  V28  1  0.88888890  0.16666667  0.91474556  1
  V  V29  1  0.77777778  0.33333335  0.08525445  1
  V  V30  1  0.77777778  0.33333335  0.41474556  1
  V  V31  1  0.88888890  0.16666667  0.58525444  1
  V  V32  1  0.88888890  0.66666667  0.91474556  1
  V  V33  1  0.77777778  0.83333335  0.08525445  1
  V  V34  1  0.77777778  0.83333335  0.41474556  1
  V  V35  1  0.88888890  0.66666667  0.58525444  1
  C  C36  1  0.00000000  0.00000000  0.00000000  1
  C  C37  1  0.00000000  0.00000000  0.50000000  1
  C  C38  1  0.00000000  0.50000000  0.00000000  1
  C  C39  1  0.00000000  0.50000000  0.50000000  1
  C  C40  1  0.33333333  0.00000000  0.00000000  1
  C  C41  1  0.33333333  0.00000000  0.50000000  1
  C  C42  1  0.33333333  0.50000000  0.00000000  1
  C  C43  1  0.33333333  0.50000000  0.50000000  1
  C  C44  1  0.66666667  0.00000000  0.00000000  1
  C  C45  1  0.66666667  0.00000000  0.50000000  1
  C  C46  1  0.66666667  0.50000000  0.00000000  1
  C  C47  1  0.66666667  0.50000000  0.50000000  1
