# generated using pymatgen
data_ZrSiC2
_symmetry_space_group_name_H-M   'P 1'
_cell_length_a   8.31940368
_cell_length_b   9.94790913
_cell_length_c   4.57399793
_cell_angle_alpha   90.00000000
_cell_angle_beta   90.00000000
_cell_angle_gamma   90.53248292
_symmetry_Int_Tables_number   1
_chemical_formula_structural   ZrSiC2
_chemical_formula_sum   'Zr8 Si8 C16'
_cell_volume   378.53079407
_cell_formula_units_Z   8
loop_
 _symmetry_equiv_pos_site_id
 _symmetry_equiv_pos_as_xyz
  1  'x, y, z'
loop_
 _atom_site_type_symbol
 _atom_site_label
 _atom_site_symmetry_multiplicity
 _atom_site_fract_x
 _atom_site_fract_y
 _atom_site_fract_z
 _atom_site_occupancy
  Si  Si0  1  0.98868886  0.96104143  0.00000000  1
  Si  Si1  1  0.25012657  0.00522094  0.50000000  1
  Si  Si2  1  0.99987343  0.49477906  0.00000000  1
  Si  Si3  1  0.00153258  0.74331544  0.50000000  1
  Si  Si4  1  0.26131114  0.53895857  0.50000000  1
  Si  Si5  1  0.24846742  0.75668456  0.00000000  1
  Si  Si6  1  0.51180224  0.95075300  0.00000000  1
  Si  Si7  1  0.73819776  0.54924700  0.50000000  1
  Zr  Zr8  1  0.01032232  0.31171027  0.50000000  1
  Zr  Zr9  1  0.23967768  0.18828973  0.00000000  1
  Zr  Zr10  1  0.49359146  0.26169900  0.50000000  1
  Zr  Zr11  1  0.74815340  0.99972534  0.50000000  1
  Zr  Zr12  1  0.75640854  0.23830100  0.00000000  1
  Zr  Zr13  1  0.50184660  0.50027466  0.00000000  1
  Zr  Zr14  1  0.48571861  0.75542690  0.50000000  1
  Zr  Zr15  1  0.76428139  0.74457310  0.00000000  1
  C  C16  1  0.03061204  0.94538542  0.50000000  1
  C  C17  1  0.01259920  0.30417659  0.00000000  1
  C  C18  1  0.27548981  0.96699564  0.00000000  1
  C  C19  1  0.23740080  0.19582341  0.50000000  1
  C  C20  1  0.97451019  0.53300436  0.50000000  1
  C  C21  1  0.02231888  0.77501840  0.00000000  1
  C  C22  1  0.21938796  0.55461458  0.00000000  1
  C  C23  1  0.22768112  0.72498160  0.50000000  1
  C  C24  1  0.48121415  0.98389693  0.50000000  1
  C  C25  1  0.48846557  0.27528149  0.00000000  1
  C  C26  1  0.74943688  0.99217692  0.00000000  1
  C  C27  1  0.76153443  0.22471851  0.50000000  1
  C  C28  1  0.50056312  0.50782308  0.50000000  1
  C  C29  1  0.48804997  0.75224633  0.00000000  1
  C  C30  1  0.76878585  0.51610307  0.00000000  1
  C  C31  1  0.76195003  0.74775367  0.50000000  1
