# generated using pymatgen
data_Zr4Ti4Nb4Cr4Si4(B3N)5
_symmetry_space_group_name_H-M   'P 1'
_cell_length_a   7.33303268
_cell_length_b   7.17580048
_cell_length_c   8.72899796
_cell_angle_alpha   89.04161783
_cell_angle_beta   89.91362451
_cell_angle_gamma   90.71781409
_symmetry_Int_Tables_number   1
_chemical_formula_structural   Zr4Ti4Nb4Cr4Si4(B3N)5
_chemical_formula_sum   'Zr4 Ti4 Nb4 Cr4 Si4 B15 N5'
_cell_volume   459.22221012
_cell_formula_units_Z   1
loop_
 _symmetry_equiv_pos_site_id
 _symmetry_equiv_pos_as_xyz
  1  'x, y, z'
loop_
 _atom_site_type_symbol
 _atom_site_label
 _atom_site_symmetry_multiplicity
 _atom_site_fract_x
 _atom_site_fract_y
 _atom_site_fract_z
 _atom_site_occupancy
  N  N0  1  0.48645640  0.47017195  0.99005983  1
  N  N1  1  0.52688706  0.48033774  0.49755298  1
  N  N2  1  0.79272442  0.40662668  0.75021854  1
  N  N3  1  0.97666259  0.97797226  0.75779041  1
  N  N4  1  0.25603730  0.92192502  0.00052799  1
  Cr  Cr5  1  0.23834642  0.96137717  0.78721788  1
  Cr  Cr6  1  0.70708973  0.10844287  0.24693645  1
  Cr  Cr7  1  0.82387319  0.39406283  0.99193922  1
  Cr  Cr8  1  0.97804881  0.98128111  0.99906111  1
  B  B9  1  0.42815066  0.16114439  0.75938624  1
  B  B10  1  0.41338335  0.18784218  0.24263229  1
  B  B11  1  0.54707727  0.80871960  0.80060365  1
  B  B12  1  0.71901074  0.11727549  0.00941661  1
  B  B13  1  0.89353187  0.69107794  0.99673209  1
  B  B14  1  0.08252649  0.28744375  0.96903998  1
  B  B15  1  0.60808391  0.81361038  0.25352998  1
  B  B16  1  0.71427105  0.09205792  0.49304932  1
  B  B17  1  0.80947699  0.38893132  0.23624908  1
  B  B18  1  0.85804209  0.71465265  0.49598626  1
  B  B19  1  0.10505272  0.32752917  0.52410026  1
  B  B20  1  0.34532805  0.72363128  0.72107005  1
  B  B21  1  0.97832966  0.99638055  0.24551996  1
  B  B22  1  0.18752868  0.58997916  0.24188589  1
  B  B23  1  0.29172510  0.82971283  0.55257660  1
  Nb  Nb24  1  0.51813613  0.46376294  0.75845627  1
  Nb  Nb25  1  0.83758042  0.71481520  0.74892609  1
  Nb  Nb26  1  0.09888113  0.29032480  0.24268390  1
  Nb  Nb27  1  0.00186554  0.00345639  0.51092794  1
  Si  Si28  1  0.12222420  0.61045590  0.46554489  1
  Si  Si29  1  0.65535501  0.83729166  0.02262667  1
  Si  Si30  1  0.56480265  0.73277123  0.48602432  1
  Si  Si31  1  0.18606896  0.31193619  0.74475225  1
  Ti  Ti32  1  0.39866228  0.19269376  0.99883743  1
  Ti  Ti33  1  0.89255994  0.69423099  0.24136955  1
  Ti  Ti34  1  0.73776906  0.12398224  0.75656424  1
  Ti  Ti35  1  0.79914321  0.40164857  0.50430617  1
  Zr  Zr36  1  0.21157641  0.60921598  0.97537044  1
  Zr  Zr37  1  0.28798209  0.89253050  0.24604598  1
  Zr  Zr38  1  0.50776831  0.49526398  0.23274176  1
  Zr  Zr39  1  0.41198014  0.19343343  0.50173941  1
