# generated using pymatgen
data_Zr2Ti2Nb2Cr2Si2(BN)5
_symmetry_space_group_name_H-M   'P 1'
_cell_length_a   7.11580854
_cell_length_b   7.00885115
_cell_length_c   8.81700853
_cell_angle_alpha   90.39169290
_cell_angle_beta   90.75895530
_cell_angle_gamma   89.52879920
_symmetry_Int_Tables_number   1
_chemical_formula_structural   Zr2Ti2Nb2Cr2Si2(BN)5
_chemical_formula_sum   'Zr4 Ti4 Nb4 Cr4 Si4 B10 N10'
_cell_volume   439.67293502
_cell_formula_units_Z   2
loop_
 _symmetry_equiv_pos_site_id
 _symmetry_equiv_pos_as_xyz
  1  'x, y, z'
loop_
 _atom_site_type_symbol
 _atom_site_label
 _atom_site_symmetry_multiplicity
 _atom_site_fract_x
 _atom_site_fract_y
 _atom_site_fract_z
 _atom_site_occupancy
  B  B0  1  0.50240112  0.49610442  0.00321747  1
  B  B1  1  0.50675495  0.49338877  0.49435816  1
  B  B2  1  0.72961641  0.08933033  0.03033693  1
  B  B3  1  0.07810954  0.28271696  0.99360590  1
  B  B4  1  0.88453085  0.69785661  0.50059674  1
  B  B5  1  0.03143787  0.99989063  0.72217946  1
  B  B6  1  0.07896880  0.27343451  0.47539072  1
  B  B7  1  0.19072591  0.59628609  0.74397152  1
  B  B8  1  0.07599833  0.09372158  0.33489088  1
  B  B9  1  0.20296901  0.58551628  0.25642574  1
  Cr  Cr10  1  0.48720047  0.51236046  0.24914208  1
  Cr  Cr11  1  0.59424957  0.75268640  0.47366056  1
  Cr  Cr12  1  0.80139098  0.41345088  0.52547364  1
  Cr  Cr13  1  0.06778502  0.31274604  0.74820948  1
  N  N14  1  0.39806112  0.17024889  0.73759151  1
  N  N15  1  0.45569816  0.18683412  0.25978729  1
  N  N16  1  0.56363287  0.79967740  0.75099898  1
  N  N17  1  0.78797801  0.39215646  0.75126096  1
  N  N18  1  0.89332210  0.69451657  0.99758315  1
  N  N19  1  0.60176390  0.76820272  0.25462915  1
  N  N20  1  0.70932943  0.12997526  0.48418386  1
  N  N21  1  0.79683155  0.39904482  0.25149368  1
  N  N22  1  0.30039921  0.89490395  0.01385082  1
  N  N23  1  0.35218845  0.88463691  0.50521533  1
  Nb  Nb24  1  0.32914356  0.88298504  0.26743280  1
  Nb  Nb25  1  0.19076150  0.58229625  0.50270487  1
  Nb  Nb26  1  0.59744396  0.79099336  0.01359441  1
  Nb  Nb27  1  0.88053965  0.67508277  0.75031985  1
  Si  Si28  1  0.31743827  0.91105968  0.70660523  1
  Si  Si29  1  0.70431814  0.16566301  0.26164101  1
  Si  Si30  1  0.04405343  0.34993057  0.22898241  1
  Si  Si31  1  0.92935563  0.99323472  0.50734168  1
  Ti  Ti32  1  0.40658741  0.20156238  0.48998424  1
  Ti  Ti33  1  0.49768693  0.49997567  0.75195173  1
  Ti  Ti34  1  0.79602624  0.40465914  0.99014806  1
  Ti  Ti35  1  0.02196133  0.97691739  0.96543266  1
  Zr  Zr36  1  0.19038457  0.60001861  0.00197027  1
  Zr  Zr37  1  0.39656964  0.18675086  0.00666788  1
  Zr  Zr38  1  0.90471068  0.76637210  0.25058400  1
  Zr  Zr39  1  0.70167543  0.09281138  0.74658488  1
