# generated using pymatgen
data_ZrTiNbCrSiB5
_symmetry_space_group_name_H-M   'P 1'
_cell_length_a   7.19614869
_cell_length_b   7.21720817
_cell_length_c   8.97547899
_cell_angle_alpha   78.39864383
_cell_angle_beta   93.00554381
_cell_angle_gamma   91.04374515
_symmetry_Int_Tables_number   1
_chemical_formula_structural   ZrTiNbCrSiB5
_chemical_formula_sum   'Zr4 Ti4 Nb4 Cr4 Si4 B20'
_cell_volume   455.98602726
_cell_formula_units_Z   4
loop_
 _symmetry_equiv_pos_site_id
 _symmetry_equiv_pos_as_xyz
  1  'x, y, z'
loop_
 _atom_site_type_symbol
 _atom_site_label
 _atom_site_symmetry_multiplicity
 _atom_site_fract_x
 _atom_site_fract_y
 _atom_site_fract_z
 _atom_site_occupancy
  B  B0  1  0.37174483  0.25380411  0.70847070  1
  B  B1  1  0.52156181  0.47406874  0.01630077  1
  B  B2  1  0.44909783  0.08054353  0.29731831  1
  B  B3  1  0.35688323  0.49095035  0.64794947  1
  B  B4  1  0.59861782  0.84257109  0.74494690  1
  B  B5  1  0.72179404  0.07878971  0.98860396  1
  B  B6  1  0.79435795  0.45558670  0.74206085  1
  B  B7  1  0.90776971  0.70082012  0.98066265  1
  B  B8  1  0.10952400  0.25567832  0.01646758  1
  B  B9  1  0.59668157  0.73815874  0.24726730  1
  B  B10  1  0.64550205  0.16314231  0.41795255  1
  B  B11  1  0.83241156  0.30786620  0.31377178  1
  B  B12  1  0.89394208  0.80376686  0.45498675  1
  B  B13  1  0.99483139  0.04181458  0.72902940  1
  B  B14  1  0.04930982  0.38672126  0.43027568  1
  B  B15  1  0.21119403  0.63846834  0.72224402  1
  B  B16  1  0.29904163  0.88782804  0.99951951  1
  B  B17  1  0.05581406  0.92028620  0.33522488  1
  B  B18  1  0.22935207  0.50429373  0.31977300  1
  B  B19  1  0.27077826  0.96214549  0.41878356  1
  Cr  Cr20  1  0.32829419  0.81668454  0.23217698  1
  Cr  Cr21  1  0.16318333  0.66640353  0.49141107  1
  Cr  Cr22  1  0.99942540  0.97942840  0.97355963  1
  Cr  Cr23  1  0.13628777  0.22047157  0.26741056  1
  Nb  Nb24  1  0.29437142  0.94560780  0.74108078  1
  Nb  Nb25  1  0.41538173  0.17320304  0.00700204  1
  Nb  Nb26  1  0.81742548  0.37889920  0.00156292  1
  Nb  Nb27  1  0.08633431  0.33606197  0.75362560  1
  Si  Si28  1  0.37247174  0.21010500  0.48840356  1
  Si  Si29  1  0.55022395  0.56281900  0.79870909  1
  Si  Si30  1  0.85203034  0.51872224  0.52953082  1
  Si  Si31  1  0.92008813  0.07027100  0.50258183  1
  Ti  Ti32  1  0.52614501  0.42888115  0.25550144  1
  Ti  Ti33  1  0.60710499  0.78986306  0.99481658  1
  Ti  Ti34  1  0.75203401  0.02261061  0.23450263  1
  Ti  Ti35  1  0.90648246  0.74837842  0.73244627  1
  Zr  Zr36  1  0.21230673  0.57604216  0.00094982  1
  Zr  Zr37  1  0.91242537  0.64227097  0.23825454  1
  Zr  Zr38  1  0.55259239  0.77407253  0.50675020  1
  Zr  Zr39  1  0.68518150  0.15189938  0.71811395  1
