# generated using pymatgen
data_Zr4Ti4Nb4Cr4Si4(BN3)5
_symmetry_space_group_name_H-M   'P 1'
_cell_length_a   6.90701966
_cell_length_b   6.86730690
_cell_length_c   8.81850764
_cell_angle_alpha   89.91214898
_cell_angle_beta   90.79999595
_cell_angle_gamma   90.57708755
_symmetry_Int_Tables_number   1
_chemical_formula_structural   Zr4Ti4Nb4Cr4Si4(BN3)5
_chemical_formula_sum   'Zr4 Ti4 Nb4 Cr4 Si4 B5 N15'
_cell_volume   418.22256238
_cell_formula_units_Z   1
loop_
 _symmetry_equiv_pos_site_id
 _symmetry_equiv_pos_as_xyz
  1  'x, y, z'
loop_
 _atom_site_type_symbol
 _atom_site_label
 _atom_site_symmetry_multiplicity
 _atom_site_fract_x
 _atom_site_fract_y
 _atom_site_fract_z
 _atom_site_occupancy
  B  B0  1  0.52010038  0.50582023  0.99348974  1
  B  B1  1  0.50471059  0.52046343  0.50340325  1
  B  B2  1  0.81701214  0.39714279  0.75418459  1
  B  B3  1  0.01578795  0.02182651  0.75692111  1
  B  B4  1  0.30287447  0.90535902  0.98577208  1
  Cr  Cr5  1  0.28077715  0.90968809  0.75584691  1
  Cr  Cr6  1  0.71778361  0.10129939  0.27902968  1
  Cr  Cr7  1  0.79127333  0.38246143  0.98736612  1
  Cr  Cr8  1  0.02080068  0.01992924  0.00444572  1
  N  N9  1  0.35584738  0.21872206  0.75298801  1
  N  N10  1  0.40452180  0.19736451  0.24888928  1
  N  N11  1  0.60221343  0.81275586  0.77523603  1
  N  N12  1  0.69345541  0.07808396  0.00232907  1
  N  N13  1  0.86389071  0.71088051  0.00551542  1
  N  N14  1  0.09710711  0.28642054  0.00618064  1
  N  N15  1  0.61434877  0.81050873  0.27506125  1
  N  N16  1  0.67893152  0.02980373  0.51687152  1
  N  N17  1  0.80269433  0.39508009  0.24873867  1
  N  N18  1  0.89615617  0.70488218  0.49909518  1
  N  N19  1  0.10760452  0.33979882  0.50452704  1
  N  N20  1  0.19616651  0.59368816  0.72262888  1
  N  N21  1  0.98506875  0.99179144  0.23979429  1
  N  N22  1  0.18117734  0.59446365  0.26623877  1
  N  N23  1  0.27146099  0.86952844  0.50621623  1
  Nb  Nb24  1  0.51110852  0.51219487  0.75128546  1
  Nb  Nb25  1  0.90679030  0.70896018  0.76353520  1
  Nb  Nb26  1  0.07268308  0.28888082  0.24810105  1
  Nb  Nb27  1  0.98998536  0.00586966  0.49940755  1
  Si  Si28  1  0.22592870  0.60310732  0.50267543  1
  Si  Si29  1  0.59963663  0.82218314  0.98072063  1
  Si  Si30  1  0.64369167  0.77389057  0.47664565  1
  Si  Si31  1  0.09664623  0.31417777  0.71445774  1
  Ti  Ti32  1  0.40546252  0.20000800  0.98678373  1
  Ti  Ti33  1  0.90097603  0.71190918  0.23216238  1
  Ti  Ti34  1  0.71805327  0.09570578  0.75985083  1
  Ti  Ti35  1  0.80578896  0.40808924  0.50404584  1
  Zr  Zr36  1  0.18471010  0.58735438  0.99137400  1
  Zr  Zr37  1  0.30273792  0.90225379  0.24440523  1
  Zr  Zr38  1  0.50872141  0.48778766  0.24580229  1
  Zr  Zr39  1  0.40531432  0.17986484  0.50797752  1
