# generated using pymatgen
data_ZrTiNbCrSiN5
_symmetry_space_group_name_H-M   'P 1'
_cell_length_a   6.88875755
_cell_length_b   6.84236103
_cell_length_c   8.54817711
_cell_angle_alpha   91.48080180
_cell_angle_beta   89.57910094
_cell_angle_gamma   91.01290671
_symmetry_Int_Tables_number   1
_chemical_formula_structural   ZrTiNbCrSiN5
_chemical_formula_sum   'Zr4 Ti4 Nb4 Cr4 Si4 N20'
_cell_volume   402.71439251
_cell_formula_units_Z   4
loop_
 _symmetry_equiv_pos_site_id
 _symmetry_equiv_pos_as_xyz
  1  'x, y, z'
loop_
 _atom_site_type_symbol
 _atom_site_label
 _atom_site_symmetry_multiplicity
 _atom_site_fract_x
 _atom_site_fract_y
 _atom_site_fract_z
 _atom_site_occupancy
  N  N0  1  0.40101311  0.22644601  0.73625812  1
  N  N1  1  0.50254150  0.49426418  0.98030938  1
  N  N2  1  0.39514747  0.20813981  0.27488949  1
  N  N3  1  0.48109869  0.47827493  0.51429121  1
  N  N4  1  0.58363062  0.76287684  0.75631394  1
  N  N5  1  0.69704724  0.09436800  0.00899617  1
  N  N6  1  0.76876728  0.40643533  0.74477284  1
  N  N7  1  0.89020835  0.70623563  0.99900292  1
  N  N8  1  0.08783983  0.27691523  0.02622304  1
  N  N9  1  0.60505697  0.79332437  0.24682733  1
  N  N10  1  0.68040540  0.13912615  0.49650845  1
  N  N11  1  0.79172695  0.39059614  0.26850178  1
  N  N12  1  0.87599844  0.63521316  0.51037818  1
  N  N13  1  0.98990927  0.98379362  0.65898466  1
  N  N14  1  0.06177725  0.30269421  0.49375450  1
  N  N15  1  0.21784891  0.58079800  0.74330137  1
  N  N16  1  0.29589510  0.90094490  0.00302200  1
  N  N17  1  0.99630635  0.01217328  0.27796618  1
  N  N18  1  0.21782828  0.62844451  0.26872776  1
  N  N19  1  0.31406269  0.98484753  0.48962535  1
  Cr  Cr20  1  0.34783772  0.92172532  0.23706259  1
  Cr  Cr21  1  0.18448239  0.57712154  0.50050303  1
  Cr  Cr22  1  0.02087790  0.98558743  -0.00100319  1
  Cr  Cr23  1  0.13297263  0.32965563  0.25494839  1
  Nb  Nb24  1  0.27277843  0.89540401  0.74419818  1
  Nb  Nb25  1  0.38113207  0.19627999  0.02118269  1
  Nb  Nb26  1  0.80998503  0.39179967  0.99588770  1
  Nb  Nb27  1  0.08471374  0.28859058  0.76195732  1
  Si  Si28  1  0.43930724  0.21953696  0.50643854  1
  Si  Si29  1  0.50385815  0.49568524  0.75218556  1
  Si  Si30  1  0.81117186  0.38037019  0.48291255  1
  Si  Si31  1  0.06902151  0.04360613  0.47075595  1
  Ti  Ti32  1  0.48806369  0.50115725  0.24948213  1
  Ti  Ti33  1  0.60128651  0.80240202  0.00833055  1
  Ti  Ti34  1  0.69032920  0.09446262  0.24423863  1
  Ti  Ti35  1  0.91200045  0.69649786  0.74598498  1
  Zr  Zr36  1  0.19600909  0.60012223  0.00757104  1
  Zr  Zr37  1  0.91266152  0.70083878  0.26351973  1
  Zr  Zr38  1  0.57381708  0.79053266  0.49811670  1
  Zr  Zr39  1  0.71358413  0.08271203  0.75707229  1
