# generated using pymatgen
data_HfZrC2
_symmetry_space_group_name_H-M   'P 1'
_cell_length_a   9.35419689
_cell_length_b   9.35436400
_cell_length_c   4.68066675
_cell_angle_alpha   90.00000000
_cell_angle_beta   90.00000000
_cell_angle_gamma   89.99463802
_symmetry_Int_Tables_number   1
_chemical_formula_structural   HfZrC2
_chemical_formula_sum   'Hf8 Zr8 C16'
_cell_volume   409.57033372
_cell_formula_units_Z   8
loop_
 _symmetry_equiv_pos_site_id
 _symmetry_equiv_pos_as_xyz
  1  'x, y, z'
loop_
 _atom_site_type_symbol
 _atom_site_label
 _atom_site_symmetry_multiplicity
 _atom_site_fract_x
 _atom_site_fract_y
 _atom_site_fract_z
 _atom_site_occupancy
  Hf  Hf0  1  0.00019993  0.00013160  0.00000000  1
  Hf  Hf1  1  0.00003120  0.25001814  0.50000000  1
  Hf  Hf2  1  0.25019276  0.50016357  0.50000000  1
  Hf  Hf3  1  0.25033864  0.75002763  0.00000000  1
  Hf  Hf4  1  0.49979977  0.99981481  0.00000000  1
  Hf  Hf5  1  0.49997016  0.25001582  0.50000000  1
  Hf  Hf6  1  0.49964760  0.74998626  0.50000000  1
  Hf  Hf7  1  0.74980720  0.49984124  0.50000000  1
  Zr  Zr8  1  0.25018952  0.99983760  0.50000000  1
  Zr  Zr9  1  0.25002359  0.24996970  0.00000000  1
  Zr  Zr10  1  0.00019581  0.49987160  0.00000000  1
  Zr  Zr11  1  0.00034820  0.74997868  0.50000000  1
  Zr  Zr12  1  0.74980978  0.00015574  0.50000000  1
  Zr  Zr13  1  0.74997719  0.24996827  0.00000000  1
  Zr  Zr14  1  0.49980389  0.50018679  0.00000000  1
  Zr  Zr15  1  0.74966506  0.75003274  0.00000000  1
  C  C16  1  0.00000064  0.00141275  0.50000000  1
  C  C17  1  0.00000638  0.24858120  0.00000000  1
  C  C18  1  0.25000063  0.99859654  0.00000000  1
  C  C19  1  0.25001222  0.25140902  0.50000000  1
  C  C20  1  0.99999803  0.49859336  0.50000000  1
  C  C21  1  0.00139275  0.75140530  0.00000000  1
  C  C22  1  0.25000337  0.50140801  0.00000000  1
  C  C23  1  0.25142059  0.74858056  0.50000000  1
  C  C24  1  0.49999851  0.00001003  0.50000000  1
  C  C25  1  0.49999460  0.24859423  0.00000000  1
  C  C26  1  0.75000031  0.99999832  0.00000000  1
  C  C27  1  0.74998608  0.25142249  0.50000000  1
  C  C28  1  0.50000128  0.49998505  0.50000000  1
  C  C29  1  0.49858741  0.75141611  0.00000000  1
  C  C30  1  0.74999732  0.49999628  0.00000000  1
  C  C31  1  0.74859956  0.74859056  0.50000000  1
