# generated using pymatgen
data_HfAlC2
_symmetry_space_group_name_H-M   'P 1'
_cell_length_a   9.03404797
_cell_length_b   8.89601068
_cell_length_c   4.56358391
_cell_angle_alpha   90.00000000
_cell_angle_beta   90.00000000
_cell_angle_gamma   89.71595754
_symmetry_Int_Tables_number   1
_chemical_formula_structural   HfAlC2
_chemical_formula_sum   'Hf8 Al8 C16'
_cell_volume   366.75698279
_cell_formula_units_Z   8
loop_
 _symmetry_equiv_pos_site_id
 _symmetry_equiv_pos_as_xyz
  1  'x, y, z'
loop_
 _atom_site_type_symbol
 _atom_site_label
 _atom_site_symmetry_multiplicity
 _atom_site_fract_x
 _atom_site_fract_y
 _atom_site_fract_z
 _atom_site_occupancy
  Al  Al0  1  0.99596469  0.99547013  0.00000000  1
  Al  Al1  1  0.25098950  0.99680172  0.50000000  1
  Al  Al2  1  0.99412592  0.75334451  0.50000000  1
  Al  Al3  1  0.75338881  0.99744184  0.50000000  1
  Al  Al4  1  0.75021513  0.24776474  0.00000000  1
  Al  Al5  1  0.50326310  0.50438489  0.00000000  1
  Al  Al6  1  0.50248839  0.75182491  0.50000000  1
  Al  Al7  1  0.75293017  0.75420958  0.00000000  1
  Hf  Hf8  1  0.99366443  0.23642875  0.50000000  1
  Hf  Hf9  1  0.24966758  0.24610180  0.00000000  1
  Hf  Hf10  1  0.99417627  0.50353162  0.00000000  1
  Hf  Hf11  1  0.25056673  0.50484107  0.50000000  1
  Hf  Hf12  1  0.24646540  0.75690905  0.00000000  1
  Hf  Hf13  1  0.50989407  0.99218851  0.00000000  1
  Hf  Hf14  1  0.50432201  0.25105422  0.50000000  1
  Hf  Hf15  1  0.74337232  0.51075974  0.50000000  1
  C  C16  1  0.99845272  0.98589545  0.50000000  1
  C  C17  1  0.99742402  0.24231068  0.00000000  1
  C  C18  1  0.25196898  -0.00008289  0.00000000  1
  C  C19  1  0.25038711  0.24724316  0.50000000  1
  C  C20  1  0.99446977  0.50056783  0.50000000  1
  C  C21  1  0.99362584  0.75785948  0.00000000  1
  C  C22  1  0.24665847  0.50320677  0.00000000  1
  C  C23  1  0.25076777  0.75664347  0.50000000  1
  C  C24  1  0.50677325  0.99446476  0.50000000  1
  C  C25  1  0.50450549  0.24809857  0.00000000  1
  C  C26  1  0.76031820  0.99753447  0.00000000  1
  C  C27  1  0.74989688  0.24799605  0.50000000  1
  C  C28  1  0.49884498  0.50601637  0.50000000  1
  C  C29  1  0.50522511  0.74276908  0.00000000  1
  C  C30  1  0.74604757  0.50446037  0.00000000  1
  C  C31  1  0.74913930  0.76195927  0.50000000  1
