# generated using pymatgen
data_HfTaC2
_symmetry_space_group_name_H-M   'P 1'
_cell_length_a   9.11482646
_cell_length_b   9.10601067
_cell_length_c   4.55297463
_cell_angle_alpha   90.00000000
_cell_angle_beta   90.00000000
_cell_angle_gamma   90.00000000
_symmetry_Int_Tables_number   1
_chemical_formula_structural   HfTaC2
_chemical_formula_sum   'Hf8 Ta8 C16'
_cell_volume   377.89556027
_cell_formula_units_Z   8
loop_
 _symmetry_equiv_pos_site_id
 _symmetry_equiv_pos_as_xyz
  1  'x, y, z'
loop_
 _atom_site_type_symbol
 _atom_site_label
 _atom_site_symmetry_multiplicity
 _atom_site_fract_x
 _atom_site_fract_y
 _atom_site_fract_z
 _atom_site_occupancy
  Hf  Hf0  1  0.99961713  0.00000000  -0.00000000  1
  Hf  Hf1  1  0.00016683  0.25066937  0.50000000  1
  Hf  Hf2  1  0.25035566  0.00000000  0.50000000  1
  Hf  Hf3  1  0.00016683  0.74933063  0.50000000  1
  Hf  Hf4  1  0.49994401  0.25012414  0.50000000  1
  Hf  Hf5  1  0.74969397  0.25020639  -0.00000000  1
  Hf  Hf6  1  0.49994401  0.74987586  0.50000000  1
  Hf  Hf7  1  0.74969397  0.74979361  0.00000000  1
  Ta  Ta8  1  0.25032815  0.24996589  -0.00000000  1
  Ta  Ta9  1  0.00170280  0.50000000  -0.00000000  1
  Ta  Ta10  1  0.24932564  0.50000000  0.50000000  1
  Ta  Ta11  1  0.25032815  0.75003411  0.00000000  1
  Ta  Ta12  1  0.50045575  0.00000000  -0.00000000  1
  Ta  Ta13  1  0.74939846  0.00000000  0.50000000  1
  Ta  Ta14  1  0.49887370  0.50000000  -0.00000000  1
  Ta  Ta15  1  0.75042865  0.50000000  0.50000000  1
  C  C16  1  0.99757239  0.00000000  0.50000000  1
  C  C17  1  0.00311810  0.25434699  0.00000000  1
  C  C18  1  0.25315436  0.00000000  -0.00000000  1
  C  C19  1  0.25055327  0.25374597  0.50000000  1
  C  C20  1  0.00131883  0.50000000  0.50000000  1
  C  C21  1  0.00311810  0.74565301  -0.00000000  1
  C  C22  1  0.24998566  0.50000000  -0.00000000  1
  C  C23  1  0.25055327  0.74625403  0.50000000  1
  C  C24  1  0.50206517  0.00000000  0.50000000  1
  C  C25  1  0.49738440  0.25081928  -0.00000000  1
  C  C26  1  0.74654007  0.00000000  -0.00000000  1
  C  C27  1  0.74915053  0.25099209  0.50000000  1
  C  C28  1  0.49893187  0.50000000  0.50000000  1
  C  C29  1  0.49738440  0.74918072  -0.00000000  1
  C  C30  1  0.74959530  0.50000000  -0.00000000  1
  C  C31  1  0.74915053  0.74900791  0.50000000  1
