# generated using pymatgen
data_HfTiC2
_symmetry_space_group_name_H-M   'P 1'
_cell_length_a   9.00698110
_cell_length_b   9.00698110
_cell_length_c   4.51559943
_cell_angle_alpha   90.00000000
_cell_angle_beta   90.00000000
_cell_angle_gamma   89.91617429
_symmetry_Int_Tables_number   1
_chemical_formula_structural   HfTiC2
_chemical_formula_sum   'Hf8 Ti8 C16'
_cell_volume   366.33081115
_cell_formula_units_Z   8
loop_
 _symmetry_equiv_pos_site_id
 _symmetry_equiv_pos_as_xyz
  1  'x, y, z'
loop_
 _atom_site_type_symbol
 _atom_site_label
 _atom_site_symmetry_multiplicity
 _atom_site_fract_x
 _atom_site_fract_y
 _atom_site_fract_z
 _atom_site_occupancy
  Ti  Ti0  1  0.00361637  0.99638363  0.00000000  1
  Ti  Ti1  1  0.24789978  0.99617920  0.50000000  1
  Ti  Ti2  1  0.00115810  0.50289837  0.00000000  1
  Ti  Ti3  1  0.00382080  0.75210022  0.50000000  1
  Ti  Ti4  1  0.24705677  0.75294323  0.00000000  1
  Ti  Ti5  1  0.49710163  0.99884190  0.00000000  1
  Ti  Ti6  1  0.75071858  0.24928142  0.00000000  1
  Ti  Ti7  1  0.49935399  0.50064601  0.00000000  1
  Hf  Hf8  1  0.99957686  0.24835223  0.50000000  1
  Hf  Hf9  1  0.24948019  0.24719025  0.00000000  1
  Hf  Hf10  1  0.24825582  0.50380069  0.50000000  1
  Hf  Hf11  1  0.50043966  0.24863385  0.50000000  1
  Hf  Hf12  1  0.75164777  0.00042314  0.50000000  1
  Hf  Hf13  1  0.49619931  0.75174418  0.50000000  1
  Hf  Hf14  1  0.75136615  0.49956034  0.50000000  1
  Hf  Hf15  1  0.75280975  0.75051981  0.00000000  1
  C  C16  1  0.00570448  0.99429552  0.50000000  1
  C  C17  1  0.99623406  0.24892983  0.00000000  1
  C  C18  1  0.24885573  0.99401152  0.00000000  1
  C  C19  1  0.24941313  0.24527166  0.50000000  1
  C  C20  1  0.00054583  0.50524587  0.50000000  1
  C  C21  1  0.00598848  0.75114427  0.00000000  1
  C  C22  1  0.24886828  0.50515431  0.00000000  1
  C  C23  1  0.24408027  0.75591973  0.50000000  1
  C  C24  1  0.49475413  0.99945417  0.50000000  1
  C  C25  1  0.50362924  0.24904079  0.00000000  1
  C  C26  1  0.75107017  0.00376594  0.00000000  1
  C  C27  1  0.75053977  0.24946023  0.50000000  1
  C  C28  1  0.49928167  0.50071833  0.50000000  1
  C  C29  1  0.49484569  0.75113172  0.00000000  1
  C  C30  1  0.75095921  0.49637076  0.00000000  1
  C  C31  1  0.75472834  0.75058687  0.50000000  1
