# generated using pymatgen
data_HfNbC2
_symmetry_space_group_name_H-M   'P 1'
_cell_length_a   9.12499755
_cell_length_b   9.12595865
_cell_length_c   4.55344371
_cell_angle_alpha   90.00000000
_cell_angle_beta   90.00000000
_cell_angle_gamma   89.98528366
_symmetry_Int_Tables_number   1
_chemical_formula_structural   HfNbC2
_chemical_formula_sum   'Hf8 Nb8 C16'
_cell_volume   379.18505422
_cell_formula_units_Z   8
loop_
 _symmetry_equiv_pos_site_id
 _symmetry_equiv_pos_as_xyz
  1  'x, y, z'
loop_
 _atom_site_type_symbol
 _atom_site_label
 _atom_site_symmetry_multiplicity
 _atom_site_fract_x
 _atom_site_fract_y
 _atom_site_fract_z
 _atom_site_occupancy
  Hf  Hf0  1  0.00173858  0.00034353  0.00000000  1
  Hf  Hf1  1  0.00028180  0.25057389  0.50000000  1
  Hf  Hf2  1  0.00118951  0.74899700  0.50000000  1
  Hf  Hf3  1  0.24998575  0.50059691  0.50000000  1
  Hf  Hf4  1  0.49974614  0.24919513  0.50000000  1
  Hf  Hf5  1  0.74822110  0.00034438  0.50000000  1
  Hf  Hf6  1  0.50023685  0.50053947  0.00000000  1
  Hf  Hf7  1  0.74887852  0.74926766  0.00000000  1
  Nb  Nb8  1  0.25200857  0.99851217  0.50000000  1
  Nb  Nb9  1  0.25006998  0.24782158  0.00000000  1
  Nb  Nb10  1  0.99975101  0.49913608  0.00000000  1
  Nb  Nb11  1  0.25138103  0.75187386  0.00000000  1
  Nb  Nb12  1  0.49818655  0.99981423  0.00000000  1
  Nb  Nb13  1  0.75013779  0.25135443  0.00000000  1
  Nb  Nb14  1  0.49841197  0.75169285  0.50000000  1
  Nb  Nb15  1  0.74985644  0.50018082  0.50000000  1
  C  C16  1  0.00362513  0.00054836  0.50000000  1
  C  C17  1  0.99996368  0.25276303  0.00000000  1
  C  C18  1  0.25275326  0.99916513  0.00000000  1
  C  C19  1  0.25008025  0.24785149  0.50000000  1
  C  C20  1  0.99862129  0.49933822  0.50000000  1
  C  C21  1  0.00276954  0.74684837  0.00000000  1
  C  C22  1  0.24797399  0.50062293  0.00000000  1
  C  C23  1  0.25215581  0.75186580  0.50000000  1
  C  C24  1  0.49734119  0.99885093  0.50000000  1
  C  C25  1  0.50015628  0.24758816  0.00000000  1
  C  C26  1  0.74631614  0.00217874  0.00000000  1
  C  C27  1  0.74976207  0.25244682  0.50000000  1
  C  C28  1  0.50205056  0.50174809  0.50000000  1
  C  C29  1  0.49788895  0.75206920  0.00000000  1
  C  C30  1  0.75122063  0.49866472  0.00000000  1
  C  C31  1  0.74723963  0.74720601  0.50000000  1
