# generated using pymatgen
data_HfMoC2
_symmetry_space_group_name_H-M   'P 1'
_cell_length_a   9.00379209
_cell_length_b   9.00830782
_cell_length_c   4.50345745
_cell_angle_alpha   90.00000000
_cell_angle_beta   90.00000000
_cell_angle_gamma   90.03469908
_symmetry_Int_Tables_number   1
_chemical_formula_structural   HfMoC2
_chemical_formula_sum   'Hf8 Mo8 C16'
_cell_volume   365.27055129
_cell_formula_units_Z   8
loop_
 _symmetry_equiv_pos_site_id
 _symmetry_equiv_pos_as_xyz
  1  'x, y, z'
loop_
 _atom_site_type_symbol
 _atom_site_label
 _atom_site_symmetry_multiplicity
 _atom_site_fract_x
 _atom_site_fract_y
 _atom_site_fract_z
 _atom_site_occupancy
  Mo  Mo0  1  0.98648788  0.00742417  0.00000000  1
  Mo  Mo1  1  0.99912506  0.24907921  0.50000000  1
  Mo  Mo2  1  0.24891730  0.00982930  0.50000000  1
  Mo  Mo3  1  0.25131548  0.48312409  0.50000000  1
  Mo  Mo4  1  0.25176206  0.76471647  0.00000000  1
  Mo  Mo5  1  0.50864736  0.99064861  0.00000000  1
  Mo  Mo6  1  0.76022489  0.24784988  0.00000000  1
  Mo  Mo7  1  0.48541405  0.51020195  0.00000000  1
  Hf  Hf8  1  0.25006082  0.24470466  0.00000000  1
  Hf  Hf9  1  0.00570530  0.49861395  0.00000000  1
  Hf  Hf10  1  0.00649471  0.75333727  0.50000000  1
  Hf  Hf11  1  0.50341644  0.24957950  0.50000000  1
  Hf  Hf12  1  0.74952650  -0.00031058  0.50000000  1
  Hf  Hf13  1  0.49358784  0.74996512  0.50000000  1
  Hf  Hf14  1  0.74995473  0.49649276  0.50000000  1
  Hf  Hf15  1  0.75045645  0.74601859  0.00000000  1
  C  C16  1  0.00317026  0.00437812  0.50000000  1
  C  C17  1  -0.00028273  0.24739034  0.00000000  1
  C  C18  1  0.24648511  0.99536612  0.00000000  1
  C  C19  1  0.24973881  0.24837037  0.50000000  1
  C  C20  1  0.00308263  0.49766266  0.50000000  1
  C  C21  1  0.00495754  0.75625984  0.00000000  1
  C  C22  1  0.25299557  0.50172055  0.00000000  1
  C  C23  1  0.25051020  0.75255900  0.50000000  1
  C  C24  1  0.49466489  0.99900238  0.50000000  1
  C  C25  1  0.50301284  0.25001154  0.00000000  1
  C  C26  1  0.74754182  0.00227193  0.00000000  1
  C  C27  1  0.75448563  0.24784314  0.50000000  1
  C  C28  1  0.49505999  0.49961936  0.50000000  1
  C  C29  1  0.49525196  0.75198846  0.00000000  1
  C  C30  1  0.74887261  0.49495012  0.00000000  1
  C  C31  1  0.74935601  0.74933111  0.50000000  1
