# generated using pymatgen
data_Hf2BC
_symmetry_space_group_name_H-M   'P 1'
_cell_length_a   9.46374451
_cell_length_b   9.45480223
_cell_length_c   4.74673534
_cell_angle_alpha   90.00000000
_cell_angle_beta   90.00000000
_cell_angle_gamma   89.36135345
_symmetry_Int_Tables_number   1
_chemical_formula_structural   Hf2BC
_chemical_formula_sum   'Hf16 B8 C8'
_cell_volume   424.70120574
_cell_formula_units_Z   8
loop_
 _symmetry_equiv_pos_site_id
 _symmetry_equiv_pos_as_xyz
  1  'x, y, z'
loop_
 _atom_site_type_symbol
 _atom_site_label
 _atom_site_symmetry_multiplicity
 _atom_site_fract_x
 _atom_site_fract_y
 _atom_site_fract_z
 _atom_site_occupancy
  Hf  Hf0  1  0.99707022  0.00242541  0.00000000  1
  Hf  Hf1  1  0.99972694  0.24598853  0.50000000  1
  Hf  Hf2  1  0.24484019  0.00688792  0.50000000  1
  Hf  Hf3  1  0.24839984  0.25272338  0.00000000  1
  Hf  Hf4  1  0.00403664  0.49971366  0.00000000  1
  Hf  Hf5  1  0.00034996  0.75831292  0.50000000  1
  Hf  Hf6  1  0.24766258  0.49059404  0.50000000  1
  Hf  Hf7  1  0.24162052  0.74073353  0.00000000  1
  Hf  Hf8  1  0.50861897  0.00732460  0.00000000  1
  Hf  Hf9  1  0.49986996  0.24849156  0.50000000  1
  Hf  Hf10  1  0.75725768  0.00883472  0.50000000  1
  Hf  Hf11  1  0.75138191  0.24658966  0.00000000  1
  Hf  Hf12  1  0.49117060  0.49077889  0.00000000  1
  Hf  Hf13  1  0.50005248  0.74956391  0.50000000  1
  Hf  Hf14  1  0.74890980  0.49237296  0.50000000  1
  Hf  Hf15  1  0.75862813  0.75874403  0.00000000  1
  C  C16  1  -0.00013053  0.00302451  0.50000000  1
  C  C17  1  0.00006008  0.24927566  0.00000000  1
  C  C18  1  0.24857597  0.24918646  0.50000000  1
  C  C19  1  0.00019015  0.75271402  0.00000000  1
  C  C20  1  0.24733200  0.49542357  0.00000000  1
  C  C21  1  0.50005365  0.24904686  0.00000000  1
  C  C22  1  0.75402010  0.00433468  0.00000000  1
  C  C23  1  0.75105047  0.24925867  0.50000000  1
  B  B24  1  0.25210058  0.99813012  0.00000000  1
  B  B25  1  0.99854227  0.50085226  0.50000000  1
  B  B26  1  0.25013269  0.74894402  0.50000000  1
  B  B27  1  0.50158081  0.99910795  0.50000000  1
  B  B28  1  0.49835695  0.49844956  0.50000000  1
  B  B29  1  0.50018073  0.74931463  0.00000000  1
  B  B30  1  0.74810168  0.50164148  0.00000000  1
  B  B31  1  0.75025598  0.75121584  0.50000000  1
