# generated using pymatgen
data_Al7SiN8
_symmetry_space_group_name_H-M   'P 1'
_cell_length_a   5.78947601
_cell_length_b   5.78947601
_cell_length_c   8.21930553
_cell_angle_alpha   89.96358568
_cell_angle_beta   90.03641441
_cell_angle_gamma   89.94076861
_symmetry_Int_Tables_number   1
_chemical_formula_structural   Al7SiN8
_chemical_formula_sum   'Al14 Si2 N16'
_cell_volume   275.49469132
_cell_formula_units_Z   2
loop_
 _symmetry_equiv_pos_site_id
 _symmetry_equiv_pos_as_xyz
  1  'x, y, z'
loop_
 _atom_site_type_symbol
 _atom_site_label
 _atom_site_symmetry_multiplicity
 _atom_site_fract_x
 _atom_site_fract_y
 _atom_site_fract_z
 _atom_site_occupancy
  Si  Si0  1  0.49558318  0.50441682  0.51075928  1
  Si  Si1  1  0.25441682  0.74558318  0.23924072  1
  N  N2  1  0.75018398  0.75013756  0.50093108  1
  N  N3  1  0.75034913  0.24965087  0.50145493  1
  N  N4  1  0.25215591  0.74784409  0.50856846  1
  N  N5  1  0.24986244  0.24981602  0.50093108  1
  N  N6  1  0.49784409  0.50215591  0.24143154  1
  N  N7  1  0.50013756  0.00018398  0.24906892  1
  N  N8  1  0.75041189  0.75044355  0.99892937  1
  N  N9  1  0.74958923  0.25041077  0.99718912  1
  N  N10  1  0.99981602  0.49986244  0.24906892  1
  N  N11  1  0.99965087  0.00034913  0.24854507  1
  N  N12  1  0.25004050  0.74995950  0.00188631  1
  N  N13  1  0.24955645  0.24958811  0.99892937  1
  N  N14  1  0.49995950  0.50004050  0.74811369  1
  N  N15  1  0.50044355  0.00041189  0.75107063  1
  N  N16  1  0.99958811  0.49955645  0.75107063  1
  N  N17  1  0.00041077  0.99958923  0.75281088  1
  Al  Al18  1  0.75209345  0.24790655  0.74977967  1
  Al  Al19  1  0.75261381  0.75247951  0.75156638  1
  Al  Al20  1  0.24752049  0.24738619  0.75156638  1
  Al  Al21  1  0.24793447  0.75206553  0.75220712  1
  Al  Al22  1  0.49969847  0.00032374  0.50061078  1
  Al  Al23  1  0.74834024  0.25165976  0.25056806  1
  Al  Al24  1  0.75032374  0.74969847  0.24938922  1
  Al  Al25  1  0.00165976  0.99834024  0.49943194  1
  Al  Al26  1  0.99967626  0.50030153  0.50061078  1
  Al  Al27  1  0.25030153  0.24967626  0.24938922  1
  Al  Al28  1  0.50247951  0.00261381  0.99843362  1
  Al  Al29  1  0.50206553  0.49793447  0.99779288  1
  Al  Al30  1  0.99790655  0.00209345  0.00022033  1
  Al  Al31  1  0.99738619  0.49752049  0.99843362  1
