# generated using pymatgen
data_Al31CrN32
_symmetry_space_group_name_H-M   'P 1'
_cell_length_a   11.29736278
_cell_length_b   11.29736234
_cell_length_c   10.02365991
_cell_angle_alpha   89.97520860
_cell_angle_beta   90.02479138
_cell_angle_gamma   147.77292818
_symmetry_Int_Tables_number   1
_chemical_formula_structural   Al31CrN32
_chemical_formula_sum   'Al31 Cr1 N32'
_cell_volume   682.23261955
_cell_formula_units_Z   1
loop_
 _symmetry_equiv_pos_site_id
 _symmetry_equiv_pos_as_xyz
  1  'x, y, z'
loop_
 _atom_site_type_symbol
 _atom_site_label
 _atom_site_symmetry_multiplicity
 _atom_site_fract_x
 _atom_site_fract_y
 _atom_site_fract_z
 _atom_site_occupancy
  Al  Al0  1  0.54178826  0.95835961  0.99862763  1
  Al  Al1  1  0.41651506  0.58362576  0.99787000  1
  Al  Al2  1  0.29173879  0.20833693  0.99871575  1
  Al  Al3  1  0.91689287  0.08351290  0.99832667  1
  Al  Al4  1  0.79247393  0.70911865  0.99782378  1
  Al  Al5  1  0.66660370  0.33317982  0.99847381  1
  Al  Al6  1  0.16696839  0.83338416  0.99844680  1
  Al  Al7  1  0.04133583  0.45841518  0.99863993  1
  Al  Al8  1  0.54175165  0.95825666  0.49846071  1
  Al  Al9  1  0.41454338  0.58178405  0.49762766  1
  Al  Al10  1  0.29195896  0.20848268  0.49815570  1
  Al  Al11  1  0.91798967  0.08479055  0.49710276  1
  Al  Al12  1  0.79276555  0.70822893  0.49710769  1
  Al  Al13  1  0.66652522  0.33305028  0.49822464  1
  Al  Al14  1  0.16702052  0.83356954  0.49830541  1
  Al  Al15  1  0.04152906  0.45862210  0.49843823  1
  Al  Al16  1  0.33107691  0.66558592  0.74923852  1
  Al  Al17  1  0.20814092  0.29075084  0.75016846  1
  Al  Al18  1  0.08566292  0.91813582  0.74894716  1
  Al  Al19  1  0.58265817  0.41478408  0.74900356  1
  Al  Al20  1  0.45856634  0.04135777  0.74837216  1
  Al  Al21  1  0.95800305  0.54218390  0.74834360  1
  Al  Al22  1  0.83327921  0.16804114  0.74910342  1
  Al  Al23  1  0.33312116  0.66670614  0.24820813  1
  Al  Al24  1  0.20842288  0.29159524  0.24769873  1
  Al  Al25  1  0.08363150  0.91680171  0.24793291  1
  Al  Al26  1  0.70798488  0.79139346  0.24841094  1
  Al  Al27  1  0.58323835  0.41642127  0.24803922  1
  Al  Al28  1  0.45837205  0.04159475  0.24837798  1
  Al  Al29  1  0.95826140  0.54176173  0.24836452  1
  Al  Al30  1  0.83327072  0.16686507  0.24828528  1
  Cr  Cr31  1  0.70902982  0.79219269  0.74308452  1
  N  N32  1  0.54173338  0.95838038  0.18939875  1
  N  N33  1  0.41652020  0.58335538  0.18964142  1
  N  N34  1  0.29180017  0.20826056  0.18924434  1
  N  N35  1  0.91628329  0.08304518  0.18973816  1
  N  N36  1  0.79159438  0.70829645  0.18948265  1
  N  N37  1  0.66662725  0.33315471  0.18929495  1
  N  N38  1  0.16684489  0.83332687  0.18925628  1
  N  N39  1  0.04148323  0.45837276  0.18942505  1
  N  N40  1  0.54147548  0.95776507  0.68944863  1
  N  N41  1  0.40661562  0.57631410  0.68815541  1
  N  N42  1  0.29230197  0.20884623  0.68931361  1
  N  N43  1  0.92158431  0.09020235  0.68797553  1
  N  N44  1  0.79548663  0.70654863  0.68765077  1
  N  N45  1  0.66613912  0.33229176  0.68918265  1
  N  N46  1  0.16797533  0.83409826  0.68922227  1
  N  N47  1  0.04045528  0.45863742  0.68923469  1
  N  N48  1  0.33266279  0.66659717  0.93981719  1
  N  N49  1  0.20852416  0.29184821  0.94028965  1
  N  N50  1  0.08406712  0.91705857  0.93956158  1
  N  N51  1  0.70804017  0.79169345  0.94108386  1
  N  N52  1  0.58338247  0.41669042  0.93962413  1
  N  N53  1  0.45853355  0.04173522  0.93936989  1
  N  N54  1  0.95808746  0.54176946  0.93935636  1
  N  N55  1  0.83350193  0.16706393  0.93974382  1
  N  N56  1  0.33300010  0.66682017  0.43899652  1
  N  N57  1  0.20852522  0.29136092  0.43836478  1
  N  N58  1  0.08431279  0.91741822  0.43866908  1
  N  N59  1  0.70802041  0.79130127  0.44103714  1
  N  N60  1  0.58317217  0.41630376  0.43889038  1
  N  N61  1  0.45848486  0.04162780  0.43922324  1
  N  N62  1  0.95817519  0.54187845  0.43916363  1
  N  N63  1  0.83346792  0.16704753  0.43921733  1
