# generated using pymatgen
data_Ti7SiN8
_symmetry_space_group_name_H-M   'P 1'
_cell_length_a   6.92596577
_cell_length_b   6.92451732
_cell_length_c   8.47897610
_cell_angle_alpha   89.73912677
_cell_angle_beta   90.00000000
_cell_angle_gamma   120.00691979
_symmetry_Int_Tables_number   1
_chemical_formula_structural   Ti7SiN8
_chemical_formula_sum   'Ti14 Si2 N16'
_cell_volume   352.13370794
_cell_formula_units_Z   2
loop_
 _symmetry_equiv_pos_site_id
 _symmetry_equiv_pos_as_xyz
  1  'x, y, z'
loop_
 _atom_site_type_symbol
 _atom_site_label
 _atom_site_symmetry_multiplicity
 _atom_site_fract_x
 _atom_site_fract_y
 _atom_site_fract_z
 _atom_site_occupancy
  Ti  Ti0  1  0.16397878  0.32795755  0.21774621  1
  Ti  Ti1  1  0.33618892  0.16084761  0.96692354  1
  Ti  Ti2  1  0.16594353  0.33188704  0.72137370  1
  Ti  Ti3  1  0.32926277  0.16523292  0.47405388  1
  Ti  Ti4  1  0.17013474  0.84174620  0.22311396  1
  Ti  Ti5  1  0.33635004  0.67270010  0.97230444  1
  Ti  Ti6  1  0.16421986  0.83273903  0.71733242  1
  Ti  Ti7  1  0.33327902  0.66655808  0.46871515  1
  Ti  Ti8  1  0.82465866  0.16084761  0.96692354  1
  Ti  Ti9  1  0.66696757  0.33393515  0.71486634  1
  Ti  Ti10  1  0.83597013  0.16523292  0.47405388  1
  Ti  Ti11  1  0.67161146  0.84174620  0.22311396  1
  Ti  Ti12  1  0.66851918  0.83273903  0.71733242  1
  Ti  Ti13  1  0.83700743  0.67401488  0.47262384  1
  Si  Si14  1  0.66780641  0.33561283  0.23895057  1
  Si  Si15  1  0.82918207  0.65836416  0.98393006  1
  N  N16  1  0.16663265  0.33326532  0.46949550  1
  N  N17  1  0.37503742  0.18841686  0.21871581  1
  N  N18  1  0.16550583  0.33101167  0.96987450  1
  N  N19  1  0.33887306  0.16820197  0.72040828  1
  N  N20  1  0.16487859  0.83219123  0.46995248  1
  N  N21  1  0.33394218  0.66788439  0.22023841  1
  N  N22  1  0.12418249  0.81209331  0.97179578  1
  N  N23  1  0.33377080  0.66754160  0.72167058  1
  N  N24  1  0.66976744  0.33953487  0.45880216  1
  N  N25  1  0.81337943  0.18841686  0.21871581  1
  N  N26  1  0.68276286  0.36552572  0.96721050  1
  N  N27  1  0.82932891  0.16820197  0.72040828  1
  N  N28  1  0.66731267  0.83219123  0.46995248  1
  N  N29  1  0.81509468  0.63018937  0.21067552  1
  N  N30  1  0.68791082  0.81209331  0.97179578  1
  N  N31  1  0.83053952  0.66107902  0.72293033  1
