# generated using pymatgen
data_AlV2C
_symmetry_space_group_name_H-M   'P 1'
_cell_length_a   2.94750161
_cell_length_b   2.94750161
_cell_length_c   13.27245792
_cell_angle_alpha   90.00000000
_cell_angle_beta   90.00000000
_cell_angle_gamma   119.99999984
_symmetry_Int_Tables_number   1
_chemical_formula_structural   AlV2C
_chemical_formula_sum   'Al2 V4 C2'
_cell_volume   99.85966209
_cell_formula_units_Z   2
loop_
 _symmetry_equiv_pos_site_id
 _symmetry_equiv_pos_as_xyz
  1  'x, y, z'
loop_
 _atom_site_type_symbol
 _atom_site_label
 _atom_site_symmetry_multiplicity
 _atom_site_fract_x
 _atom_site_fract_y
 _atom_site_fract_z
 _atom_site_occupancy
  Al  Al0  1  0.66666669  0.33333334  0.25000000  1
  Al  Al1  1  0.33333334  0.66666669  0.75000000  1
  V  V2  1  0.66666669  0.33333334  0.91639217  1
  V  V3  1  0.33333334  0.66666669  0.08360784  1
  V  V4  1  0.33333334  0.66666669  0.41639217  1
  V  V5  1  0.66666669  0.33333334  0.58360783  1
  C  C6  1  0.00000000  0.00000000  0.00000000  1
  C  C7  1  0.00000000  0.00000000  0.50000000  1
