# generated using pymatgen
data_HfZrC2
_symmetry_space_group_name_H-M   'P 1'
_cell_length_a   9.35878365
_cell_length_b   4.67873240
_cell_length_c   4.67863926
_cell_angle_alpha   90.00000000
_cell_angle_beta   90.00000000
_cell_angle_gamma   90.00000000
_symmetry_Int_Tables_number   1
_chemical_formula_structural   HfZrC2
_chemical_formula_sum   'Hf4 Zr4 C8'
_cell_volume   204.86472021
_cell_formula_units_Z   4
loop_
 _symmetry_equiv_pos_site_id
 _symmetry_equiv_pos_as_xyz
  1  'x, y, z'
loop_
 _atom_site_type_symbol
 _atom_site_label
 _atom_site_symmetry_multiplicity
 _atom_site_fract_x
 _atom_site_fract_y
 _atom_site_fract_z
 _atom_site_occupancy
  Hf  Hf0  1  0.99941853  0.00000000  0.00000000  1
  Hf  Hf1  1  0.99945433  0.50000000  0.50000000  1
  Hf  Hf2  1  0.50060160  0.00000000  0.00000000  1
  Hf  Hf3  1  0.75054438  0.50000000  0.00000000  1
  Zr  Zr4  1  0.24947406  0.00000000  0.50000000  1
  Zr  Zr5  1  0.24937361  0.50000000  0.00000000  1
  Zr  Zr6  1  0.50055153  0.50000000  0.50000000  1
  Zr  Zr7  1  0.75057829  0.00000000  0.50000000  1
  C  C8  1  0.99983908  0.00000000  0.50000000  1
  C  C9  1  0.99841411  0.50000000  0.00000000  1
  C  C10  1  0.24989477  0.00000000  0.00000000  1
  C  C11  1  0.24831361  0.50000000  0.50000000  1
  C  C12  1  0.50008514  0.00000000  0.50000000  1
  C  C13  1  0.50166020  0.50000000  0.00000000  1
  C  C14  1  0.75010906  0.00000000  0.00000000  1
  C  C15  1  0.75168771  0.50000000  0.50000000  1
