# generated using pymatgen
data_ZrCrC2
_symmetry_space_group_name_H-M   'P 1'
_cell_length_a   9.17224984
_cell_length_b   8.78718408
_cell_length_c   4.44573165
_cell_angle_alpha   90.00000000
_cell_angle_beta   90.00000000
_cell_angle_gamma   88.02150493
_symmetry_Int_Tables_number   1
_chemical_formula_structural   ZrCrC2
_chemical_formula_sum   'Zr8 Cr8 C16'
_cell_volume   358.10457170
_cell_formula_units_Z   8
loop_
 _symmetry_equiv_pos_site_id
 _symmetry_equiv_pos_as_xyz
  1  'x, y, z'
loop_
 _atom_site_type_symbol
 _atom_site_label
 _atom_site_symmetry_multiplicity
 _atom_site_fract_x
 _atom_site_fract_y
 _atom_site_fract_z
 _atom_site_occupancy
  Zr  Zr0  1  0.01043197  0.00866712  0.00000000  1
  Zr  Zr1  1  0.01520586  0.50091283  0.00000000  1
  Zr  Zr2  1  0.99991342  0.76024650  0.50000000  1
  Zr  Zr3  1  0.25653542  0.74502113  0.00000000  1
  Zr  Zr4  1  0.73546802  0.02920032  0.50000000  1
  Zr  Zr5  1  0.50224303  0.47056621  0.00000000  1
  Zr  Zr6  1  0.50224130  0.75037278  0.50000000  1
  Zr  Zr7  1  0.74893221  0.74859453  0.00000000  1
  Cr  Cr8  1  0.02079007  0.24309358  0.50000000  1
  Cr  Cr9  1  0.24934123  0.97939430  0.50000000  1
  Cr  Cr10  1  0.23519016  0.24742120  0.00000000  1
  Cr  Cr11  1  0.25053403  0.52144753  0.50000000  1
  Cr  Cr12  1  0.45719113  0.01610415  0.00000000  1
  Cr  Cr13  1  0.43078099  0.23449464  0.50000000  1
  Cr  Cr14  1  0.80569193  0.26269194  0.00000000  1
  Cr  Cr15  1  0.79963796  0.48404426  0.50000000  1
  C  C16  1  0.01018096  0.01613923  0.50000000  1
  C  C17  1  0.01245769  0.25384863  0.00000000  1
  C  C18  1  0.25525653  0.00903272  0.00000000  1
  C  C19  1  0.23408395  0.24150418  0.50000000  1
  C  C20  1  0.00907065  0.49202987  0.50000000  1
  C  C21  1  0.00084698  0.75319484  0.00000000  1
  C  C22  1  0.25378322  0.48403547  0.00000000  1
  C  C23  1  0.25324130  0.74718736  0.50000000  1
  C  C24  1  0.47404029  0.01202829  0.50000000  1
  C  C25  1  0.46131384  0.22669914  0.00000000  1
  C  C26  1  0.75573034  0.03946284  0.00000000  1
  C  C27  1  0.78029573  0.27604175  0.50000000  1
  C  C28  1  0.46405702  0.46440645  0.50000000  1
  C  C29  1  0.50223818  0.73987197  0.00000000  1
  C  C30  1  0.76419786  0.48467972  0.00000000  1
  C  C31  1  0.74907674  0.75756454  0.50000000  1
