# generated using pymatgen
data_HfWC2
_symmetry_space_group_name_H-M   'P 1'
_cell_length_a   8.99543203
_cell_length_b   9.03842652
_cell_length_c   4.49415744
_cell_angle_alpha   90.00000000
_cell_angle_beta   90.00000000
_cell_angle_gamma   89.92165933
_symmetry_Int_Tables_number   1
_chemical_formula_structural   HfWC2
_chemical_formula_sum   'Hf8 W8 C16'
_cell_volume   365.39511306
_cell_formula_units_Z   8
loop_
 _symmetry_equiv_pos_site_id
 _symmetry_equiv_pos_as_xyz
  1  'x, y, z'
loop_
 _atom_site_type_symbol
 _atom_site_label
 _atom_site_symmetry_multiplicity
 _atom_site_fract_x
 _atom_site_fract_y
 _atom_site_fract_z
 _atom_site_occupancy
  Hf  Hf0  1  0.99517644  0.00105715  0.00000000  1
  Hf  Hf1  1  0.00058014  0.25066401  0.50000000  1
  Hf  Hf2  1  0.25169539  0.00252310  0.50000000  1
  Hf  Hf3  1  0.00743005  0.49856101  0.00000000  1
  Hf  Hf4  1  0.00191265  0.74858420  0.50000000  1
  Hf  Hf5  1  0.74440549  0.00253645  0.50000000  1
  Hf  Hf6  1  0.49830094  0.74836203  0.50000000  1
  Hf  Hf7  1  0.74856660  0.49889724  0.50000000  1
  W  W8  1  0.24366960  0.23945549  0.00000000  1
  W  W9  1  0.26038917  0.48982029  0.50000000  1
  W  W10  1  0.24225547  0.76367810  0.00000000  1
  W  W11  1  0.50181415  0.98282716  0.00000000  1
  W  W12  1  0.49641367  0.25543656  0.50000000  1
  W  W13  1  0.75689842  0.25937606  0.00000000  1
  W  W14  1  0.49460765  0.51592621  0.00000000  1
  W  W15  1  0.75867147  0.74110669  0.00000000  1
  C  C16  1  0.99703793  0.99959393  0.50000000  1
  C  C17  1  0.00074441  0.25062016  0.00000000  1
  C  C18  1  0.25435817  0.00141307  0.00000000  1
  C  C19  1  0.25383095  0.25218614  0.50000000  1
  C  C20  1  0.00609317  0.49948187  0.50000000  1
  C  C21  1  0.00132162  0.74914501  0.00000000  1
  C  C22  1  0.25811344  0.49718458  0.00000000  1
  C  C23  1  0.25106941  0.74522675  0.50000000  1
  C  C24  1  0.49937100  0.00346072  0.50000000  1
  C  C25  1  0.49713732  0.25311248  0.00000000  1
  C  C26  1  0.74139386  0.00300974  0.00000000  1
  C  C27  1  0.74364523  0.25067874  0.50000000  1
  C  C28  1  0.49980598  0.49750392  0.50000000  1
  C  C29  1  0.49768049  0.74993903  0.00000000  1
  C  C30  1  0.74655839  0.49895812  0.00000000  1
  C  C31  1  0.74905131  0.74967396  0.50000000  1
