# generated using pymatgen
data_HfSiC2
_symmetry_space_group_name_H-M   'P 1'
_cell_length_a   9.23152517
_cell_length_b   8.68570875
_cell_length_c   4.48864740
_cell_angle_alpha   90.00000000
_cell_angle_beta   90.00000000
_cell_angle_gamma   89.87140554
_symmetry_Int_Tables_number   1
_chemical_formula_structural   HfSiC2
_chemical_formula_sum   'Hf8 Si8 C16'
_cell_volume   359.90934059
_cell_formula_units_Z   8
loop_
 _symmetry_equiv_pos_site_id
 _symmetry_equiv_pos_as_xyz
  1  'x, y, z'
loop_
 _atom_site_type_symbol
 _atom_site_label
 _atom_site_symmetry_multiplicity
 _atom_site_fract_x
 _atom_site_fract_y
 _atom_site_fract_z
 _atom_site_occupancy
  Hf  Hf0  1  0.99179910  0.99886216  0.00000000  1
  Hf  Hf1  1  0.04662788  0.24359580  0.50000000  1
  Hf  Hf2  1  0.00396557  0.50020675  0.00000000  1
  Hf  Hf3  1  0.24824926  0.76008887  0.00000000  1
  Hf  Hf4  1  0.49602482  0.00299674  0.00000000  1
  Hf  Hf5  1  0.74174245  0.00079923  0.50000000  1
  Hf  Hf6  1  0.74175461  0.25933910  0.00000000  1
  Hf  Hf7  1  0.74762393  0.73953341  0.00000000  1
  Si  Si8  1  0.28878231  0.98741532  0.50000000  1
  Si  Si9  1  0.27349928  0.25182148  0.00000000  1
  Si  Si10  1  0.02547762  0.75443784  0.50000000  1
  Si  Si11  1  0.25704106  0.54353913  0.50000000  1
  Si  Si12  1  0.48622887  0.28046884  0.50000000  1
  Si  Si13  1  0.47216809  0.50361349  0.00000000  1
  Si  Si14  1  0.52179536  0.74198342  0.50000000  1
  Si  Si15  1  0.70275933  0.49533831  0.50000000  1
  C  C16  1  0.99049558  0.98597011  0.50000000  1
  C  C17  1  0.99806951  0.24957596  0.00000000  1
  C  C18  1  0.25420030  0.01916532  0.00000000  1
  C  C19  1  0.28288262  0.21864357  0.50000000  1
  C  C20  1  0.04959609  0.51055179  0.50000000  1
  C  C21  1  0.99905000  0.74931571  0.00000000  1
  C  C22  1  0.26537392  0.49191985  0.00000000  1
  C  C23  1  0.23044085  0.76630378  0.50000000  1
  C  C24  1  0.49514494  0.95959595  0.50000000  1
  C  C25  1  0.48480119  0.27075736  0.00000000  1
  C  C26  1  0.74522592  0.99882736  0.00000000  1
  C  C27  1  0.70015363  0.26740224  0.50000000  1
  C  C28  1  0.48150534  0.50545976  0.50000000  1
  C  C29  1  0.49499964  0.72681988  0.00000000  1
  C  C30  1  0.75791163  0.49778557  0.00000000  1
  C  C31  1  0.72460934  0.71786590  0.50000000  1
