# generated using pymatgen
data_HfCrC2
_symmetry_space_group_name_H-M   'P 1'
_cell_length_a   8.71437523
_cell_length_b   8.91953029
_cell_length_c   4.42974938
_cell_angle_alpha   90.00000000
_cell_angle_beta   90.00000000
_cell_angle_gamma   90.54280810
_symmetry_Int_Tables_number   1
_chemical_formula_structural   HfCrC2
_chemical_formula_sum   'Hf8 Cr8 C16'
_cell_volume   344.30070119
_cell_formula_units_Z   8
loop_
 _symmetry_equiv_pos_site_id
 _symmetry_equiv_pos_as_xyz
  1  'x, y, z'
loop_
 _atom_site_type_symbol
 _atom_site_label
 _atom_site_symmetry_multiplicity
 _atom_site_fract_x
 _atom_site_fract_y
 _atom_site_fract_z
 _atom_site_occupancy
  Hf  Hf0  1  0.00236281  0.00353702  0.00000000  1
  Hf  Hf1  1  0.00637018  0.49740214  0.00000000  1
  Hf  Hf2  1  0.00760323  0.75306320  0.50000000  1
  Hf  Hf3  1  0.26018618  0.50254253  0.50000000  1
  Hf  Hf4  1  0.49177384  0.23550786  0.50000000  1
  Hf  Hf5  1  0.74831935  0.00423239  0.50000000  1
  Hf  Hf6  1  0.74606131  0.49255188  0.50000000  1
  Hf  Hf7  1  0.73233182  0.74929750  0.00000000  1
  Cr  Cr8  1  0.00938758  0.24132355  0.50000000  1
  Cr  Cr9  1  0.24345277  0.00135806  0.50000000  1
  Cr  Cr10  1  0.22810724  0.24242645  0.00000000  1
  Cr  Cr11  1  0.26658443  0.79721315  0.00000000  1
  Cr  Cr12  1  0.50239249  0.01006614  0.00000000  1
  Cr  Cr13  1  0.77923462  0.24885156  0.00000000  1
  Cr  Cr14  1  0.49838890  0.44921067  0.00000000  1
  Cr  Cr15  1  0.48501205  0.78100627  0.50000000  1
  C  C16  1  0.01018336  0.01058411  0.50000000  1
  C  C17  1  0.00179967  0.24956490  0.00000000  1
  C  C18  1  0.26050325  0.00774331  0.00000000  1
  C  C19  1  0.23581629  0.23864515  0.50000000  1
  C  C20  1  0.00607808  0.49789896  0.50000000  1
  C  C21  1  0.00685792  0.75348344  0.00000000  1
  C  C22  1  0.26885789  0.47506123  0.00000000  1
  C  C23  1  0.26286210  0.76713321  0.50000000  1
  C  C24  1  0.48716403  0.99189960  0.50000000  1
  C  C25  1  0.49677370  0.24184967  0.00000000  1
  C  C26  1  0.74187829  0.00980381  0.00000000  1
  C  C27  1  0.76046815  0.24765611  0.50000000  1
  C  C28  1  0.49990152  0.48712257  0.50000000  1
  C  C29  1  0.48047708  0.77580408  0.00000000  1
  C  C30  1  0.73958552  0.48673162  0.00000000  1
  C  C31  1  0.73322434  0.74942787  0.50000000  1
