# generated using pymatgen
data_Hf31ZrC32
_symmetry_space_group_name_H-M   'P 1'
_cell_length_a   9.29702844
_cell_length_b   9.29702844
_cell_length_c   9.29702844
_cell_angle_alpha   90.00000000
_cell_angle_beta   90.00000000
_cell_angle_gamma   90.00000000
_symmetry_Int_Tables_number   1
_chemical_formula_structural   Hf31ZrC32
_chemical_formula_sum   'Hf31 Zr1 C32'
_cell_volume   803.58621566
_cell_formula_units_Z   1
loop_
 _symmetry_equiv_pos_site_id
 _symmetry_equiv_pos_as_xyz
  1  'x, y, z'
loop_
 _atom_site_type_symbol
 _atom_site_label
 _atom_site_symmetry_multiplicity
 _atom_site_fract_x
 _atom_site_fract_y
 _atom_site_fract_z
 _atom_site_occupancy
  Hf  Hf0  1  0.00000000  0.00016717  0.99983283  1
  Hf  Hf1  1  0.00000000  0.25000000  0.25000000  1
  Hf  Hf2  1  0.25016717  0.00016717  0.25000000  1
  Hf  Hf3  1  0.25000931  0.25000000  0.99999069  1
  Hf  Hf4  1  0.00000000  0.00016717  0.50016717  1
  Hf  Hf5  1  0.00000000  0.25000000  0.75000000  1
  Hf  Hf6  1  0.25000931  0.00000931  0.75000000  1
  Hf  Hf7  1  0.25000931  0.25000000  0.50000931  1
  Hf  Hf8  1  0.00000000  0.49983283  0.99983283  1
  Hf  Hf9  1  0.25016717  0.49983283  0.25000000  1
  Hf  Hf10  1  0.25016717  0.75000000  0.99983283  1
  Hf  Hf11  1  0.00000000  0.49983283  0.50016717  1
  Hf  Hf12  1  0.00000000  0.75000000  0.75000000  1
  Hf  Hf13  1  0.25000931  0.49999069  0.75000000  1
  Hf  Hf14  1  0.25016717  0.75000000  0.50016717  1
  Hf  Hf15  1  0.50000000  0.00000931  0.99999069  1
  Hf  Hf16  1  0.50000000  0.25000000  0.25000000  1
  Hf  Hf17  1  0.74983283  0.00016717  0.25000000  1
  Hf  Hf18  1  0.74999069  0.25000000  0.99999069  1
  Hf  Hf19  1  0.50000000  0.00000931  0.50000931  1
  Hf  Hf20  1  0.50000000  0.25000000  0.75000000  1
  Hf  Hf21  1  0.74999069  0.00000931  0.75000000  1
  Hf  Hf22  1  0.74999069  0.25000000  0.50000931  1
  Hf  Hf23  1  0.50000000  0.49999069  0.99999069  1
  Hf  Hf24  1  0.50000000  0.75000000  0.25000000  1
  Hf  Hf25  1  0.74983283  0.49983283  0.25000000  1
  Hf  Hf26  1  0.74983283  0.75000000  0.99983283  1
  Hf  Hf27  1  0.50000000  0.49999069  0.50000931  1
  Hf  Hf28  1  0.50000000  0.75000000  0.75000000  1
  Hf  Hf29  1  0.74999069  0.49999069  0.75000000  1
  Hf  Hf30  1  0.74983283  0.75000000  0.50016717  1
  C  C31  1  0.00000000  0.00130606  0.25000000  1
  C  C32  1  0.00000000  0.25000000  0.99999478  1
  C  C33  1  0.25000776  0.00000776  0.99999224  1
  C  C34  1  0.25000522  0.25000000  0.25000000  1
  C  C35  1  0.00000000  0.00000522  0.75000000  1
  C  C36  1  0.00000000  0.25000000  0.50000522  1
  C  C37  1  0.25000776  0.00000776  0.50000776  1
  C  C38  1  0.24999476  0.25000000  0.75000000  1
  C  C39  1  0.00000000  0.49869394  0.25000000  1
  C  C40  1  0.00000000  0.75000000  0.99869394  1
  C  C41  1  0.25000776  0.49999224  0.99999224  1
  C  C42  1  0.25130606  0.75000000  0.25000000  1
  C  C43  1  0.00000000  0.49999478  0.75000000  1
  C  C44  1  0.00000000  0.75000000  0.50130606  1
  C  C45  1  0.25000776  0.49999224  0.50000776  1
  C  C46  1  0.25000522  0.75000000  0.75000000  1
  C  C47  1  0.50000000  0.00000522  0.25000000  1
  C  C48  1  0.50000000  0.25000000  0.00000524  1
  C  C49  1  0.74999224  0.00000776  0.99999224  1
  C  C50  1  0.74999478  0.25000000  0.25000000  1
  C  C51  1  0.50000000  0.99999476  0.75000000  1
  C  C52  1  0.50000000  0.25000000  0.49999476  1
  C  C53  1  0.74999224  0.00000776  0.50000776  1
  C  C54  1  0.75000524  0.25000000  0.75000000  1
  C  C55  1  0.50000000  0.49999478  0.25000000  1
  C  C56  1  0.50000000  0.75000000  0.99999478  1
  C  C57  1  0.74999224  0.49999224  0.99999224  1
  C  C58  1  0.74869394  0.75000000  0.25000000  1
  C  C59  1  0.50000000  0.50000524  0.75000000  1
  C  C60  1  0.50000000  0.75000000  0.50000522  1
  C  C61  1  0.74999224  0.49999224  0.50000776  1
  C  C62  1  0.74999478  0.75000000  0.75000000  1
  Zr  Zr63  1  0.00000000  0.75000000  0.25000000  1
