# generated using pymatgen
data_HfVC2
_symmetry_space_group_name_H-M   'P 1'
_cell_length_a   8.89174503
_cell_length_b   8.82110744
_cell_length_c   4.43826470
_cell_angle_alpha   90.00000000
_cell_angle_beta   90.00000000
_cell_angle_gamma   89.91805664
_symmetry_Int_Tables_number   1
_chemical_formula_structural   HfVC2
_chemical_formula_sum   'Hf8 V8 C16'
_cell_volume   348.11510549
_cell_formula_units_Z   8
loop_
 _symmetry_equiv_pos_site_id
 _symmetry_equiv_pos_as_xyz
  1  'x, y, z'
loop_
 _atom_site_type_symbol
 _atom_site_label
 _atom_site_symmetry_multiplicity
 _atom_site_fract_x
 _atom_site_fract_y
 _atom_site_fract_z
 _atom_site_occupancy
  V  V0  1  0.00990396  0.99578201  0.00000000  1
  V  V1  1  0.00431649  0.24793244  0.50000000  1
  V  V2  1  0.25557387  0.50481533  0.50000000  1
  V  V3  1  0.26408912  0.75122113  0.00000000  1
  V  V4  1  0.49472899  0.99683562  0.00000000  1
  V  V5  1  0.49606585  0.24219539  0.50000000  1
  V  V6  1  0.49627688  0.75240787  0.50000000  1
  V  V7  1  0.72772423  0.75622587  0.00000000  1
  Hf  Hf8  1  0.25265163  0.99745368  0.50000000  1
  Hf  Hf9  1  0.25072405  0.25102123  0.00000000  1
  Hf  Hf10  1  0.00325435  0.50344070  0.00000000  1
  Hf  Hf11  1  0.00255837  0.75309893  0.50000000  1
  Hf  Hf12  1  0.74799302  0.99735389  0.50000000  1
  Hf  Hf13  1  0.75029766  0.24497859  0.00000000  1
  Hf  Hf14  1  0.49704326  0.50191354  0.00000000  1
  Hf  Hf15  1  0.74677607  0.50211592  0.50000000  1
  C  C16  1  0.00206616  0.00727585  0.50000000  1
  C  C17  1  0.00209130  0.24297101  0.00000000  1
  C  C18  1  0.25149451  0.99289584  0.00000000  1
  C  C19  1  0.25078562  0.25513727  0.50000000  1
  C  C20  1  0.00668037  0.49685057  0.50000000  1
  C  C21  1  0.00501845  0.76175155  0.00000000  1
  C  C22  1  0.25146411  0.50829599  0.00000000  1
  C  C23  1  0.25948163  0.74411390  0.50000000  1
  C  C24  1  0.49910196  0.99877297  0.50000000  1
  C  C25  1  0.49905264  0.24058375  0.00000000  1
  C  C26  1  0.74655683  0.98839798  0.00000000  1
  C  C27  1  0.75075118  0.24699359  0.50000000  1
  C  C28  1  0.48997089  0.50380525  0.50000000  1
  C  C29  1  0.49809241  0.75664378  0.00000000  1
  C  C30  1  0.74807234  0.50505963  0.00000000  1
  C  C31  1  0.73934178  0.75165890  0.50000000  1
