# generated using pymatgen
data_TiAlCN
_symmetry_space_group_name_H-M   'P 1'
_cell_length_a   3.47579835
_cell_length_b   4.24207499
_cell_length_c   12.16454940
_cell_angle_alpha   90.01132949
_cell_angle_beta   90.00000184
_cell_angle_gamma   90.00000000
_symmetry_Int_Tables_number   1
_chemical_formula_structural   TiAlCN
_chemical_formula_sum   'Ti4 Al4 C4 N4'
_cell_volume   179.36137810
_cell_formula_units_Z   4
loop_
 _symmetry_equiv_pos_site_id
 _symmetry_equiv_pos_as_xyz
  1  'x, y, z'
loop_
 _atom_site_type_symbol
 _atom_site_label
 _atom_site_symmetry_multiplicity
 _atom_site_fract_x
 _atom_site_fract_y
 _atom_site_fract_z
 _atom_site_occupancy
  Al  Al0  1  0.49999950  0.06230543  0.09086638  1
  Al  Al1  1  0.99999950  0.06238041  0.32759883  1
  Al  Al2  1  0.00000050  0.56219965  0.16408015  1
  Al  Al3  1  0.00000050  0.56271431  0.66768631  1
  Ti  Ti4  1  0.49999950  0.06264485  0.58273363  1
  Ti  Ti5  1  0.99999950  0.06268703  0.83062363  1
  Ti  Ti6  1  0.50000050  0.56249984  0.41307051  1
  Ti  Ti7  1  0.50000050  0.56265622  0.92111831  1
  C  C8  1  0.49999950  0.56234653  0.08086066  1
  C  C9  1  0.99999950  0.56238567  0.32937576  1
  C  C10  1  0.50000050  0.06245778  0.42386253  1
  C  C11  1  0.50000050  0.06258155  0.91373147  1
  N  N12  1  0.49999950  0.56258196  0.59424862  1
  N  N13  1  0.99999950  0.56262015  0.82724270  1
  N  N14  1  0.00000050  0.06235711  0.16742903  1
  N  N15  1  0.00000050  0.06258151  0.66547149  1
