# generated using pymatgen
data_AlCoCN
_symmetry_space_group_name_H-M   'P 1'
_cell_length_a   3.18469775
_cell_length_b   5.03561575
_cell_length_c   10.60571507
_cell_angle_alpha   90.19650907
_cell_angle_beta   90.00000146
_cell_angle_gamma   90.00000000
_symmetry_Int_Tables_number   1
_chemical_formula_structural   AlCoCN
_chemical_formula_sum   'Al4 Co4 C4 N4'
_cell_volume   170.08194168
_cell_formula_units_Z   4
loop_
 _symmetry_equiv_pos_site_id
 _symmetry_equiv_pos_as_xyz
  1  'x, y, z'
loop_
 _atom_site_type_symbol
 _atom_site_label
 _atom_site_symmetry_multiplicity
 _atom_site_fract_x
 _atom_site_fract_y
 _atom_site_fract_z
 _atom_site_occupancy
  Al  Al0  1  0.49999950  0.98322914  0.08129844  1
  Al  Al1  1  0.99999950  0.99655167  0.33865718  1
  Al  Al2  1  0.00000050  0.46324404  0.16168163  1
  Al  Al3  1  0.00000050  0.53335554  0.66165883  1
  Co  Co4  1  0.49999950  0.03510089  0.59777760  1
  Co  Co5  1  0.99999950  0.01804880  0.82446921  1
  Co  Co6  1  0.50000050  0.49609844  0.42211346  1
  Co  Co7  1  0.50000050  0.49898663  0.90514860  1
  C  C8  1  0.49999950  0.59073155  0.07237137  1
  C  C9  1  0.99999950  0.58962049  0.34990372  1
  C  C10  1  0.50000050  0.13339180  0.43120834  1
  C  C11  1  0.50000050  0.13649988  0.89983637  1
  N  N12  1  0.49999950  0.65272200  0.58758284  1
  N  N13  1  0.99999950  0.63842732  0.83711466  1
  N  N14  1  0.00000050  0.08874137  0.16697503  1
  N  N15  1  0.00000050  0.14525043  0.66220273  1
