# generated using pymatgen
data_AlFeCN
_symmetry_space_group_name_H-M   'P 1'
_cell_length_a   3.09847368
_cell_length_b   5.09332132
_cell_length_c   10.76113312
_cell_angle_alpha   90.11913725
_cell_angle_beta   90.00000144
_cell_angle_gamma   90.00000000
_symmetry_Int_Tables_number   1
_chemical_formula_structural   AlFeCN
_chemical_formula_sum   'Al4 Fe4 C4 N4'
_cell_volume   169.82669258
_cell_formula_units_Z   4
loop_
 _symmetry_equiv_pos_site_id
 _symmetry_equiv_pos_as_xyz
  1  'x, y, z'
loop_
 _atom_site_type_symbol
 _atom_site_label
 _atom_site_symmetry_multiplicity
 _atom_site_fract_x
 _atom_site_fract_y
 _atom_site_fract_z
 _atom_site_occupancy
  Al  Al0  1  0.49999950  0.98664915  0.08014438  1
  Al  Al1  1  0.99999950  0.99301715  0.33643966  1
  Al  Al2  1  0.00000050  0.46468786  0.16529701  1
  Al  Al3  1  0.00000050  0.52211209  0.66341315  1
  Fe  Fe4  1  0.49999950  0.01542135  0.59293016  1
  Fe  Fe5  1  0.99999950  0.01675202  0.82588472  1
  Fe  Fe6  1  0.50000050  0.49576622  0.42573078  1
  Fe  Fe7  1  0.50000050  0.50234725  0.90712783  1
  C  C8  1  0.49999950  0.59598621  0.06998869  1
  C  C9  1  0.99999950  0.59570156  0.34521237  1
  C  C10  1  0.50000050  0.14316775  0.43450013  1
  C  C11  1  0.50000050  0.13913306  0.90357555  1
  N  N12  1  0.49999950  0.64719901  0.58437412  1
  N  N13  1  0.99999950  0.64522005  0.83160840  1
  N  N14  1  0.00000050  0.09384770  0.16868613  1
  N  N15  1  0.00000050  0.14299155  0.66508690  1
