# generated using pymatgen
data_AlBCN
_symmetry_space_group_name_H-M   'P 1'
_cell_length_a   2.86681569
_cell_length_b   4.61883768
_cell_length_c   10.23103762
_cell_angle_alpha   95.60075640
_cell_angle_beta   90.00000118
_cell_angle_gamma   89.99999988
_symmetry_Int_Tables_number   1
_chemical_formula_structural   AlBCN
_chemical_formula_sum   'Al4 B4 C4 N4'
_cell_volume   134.82608268
_cell_formula_units_Z   4
loop_
 _symmetry_equiv_pos_site_id
 _symmetry_equiv_pos_as_xyz
  1  'x, y, z'
loop_
 _atom_site_type_symbol
 _atom_site_label
 _atom_site_symmetry_multiplicity
 _atom_site_fract_x
 _atom_site_fract_y
 _atom_site_fract_z
 _atom_site_occupancy
  Al  Al0  1  0.49999950  0.93165478  0.05023786  1
  Al  Al1  1  0.99999950  0.97389783  0.34120301  1
  Al  Al2  1  0.00000050  0.42774959  0.16777300  1
  Al  Al3  1  0.00000050  0.53898230  0.66409962  1
  B  B4  1  0.49999950  0.01786517  0.59934391  1
  B  B5  1  0.99999950  0.08039479  0.83153850  1
  B  B6  1  0.50000050  0.50058016  0.43909808  1
  B  B7  1  0.50000050  0.58149364  0.88872406  1
  C  C8  1  0.49999950  0.46144579  0.03097027  1
  C  C9  1  0.99999950  0.54515447  0.35689912  1
  C  C10  1  0.50000050  0.15620519  0.45885361  1
  C  C11  1  0.50000050  0.23561652  0.90653236  1
  N  N12  1  0.49999950  0.68142656  0.58101205  1
  N  N13  1  0.99999950  0.72498616  0.84300395  1
  N  N14  1  0.00000050  0.00751606  0.15690001  1
  N  N15  1  0.00000050  0.13503100  0.68381056  1
