# generated using pymatgen
data_AlCrCN
_symmetry_space_group_name_H-M   'P 1'
_cell_length_a   3.16799209
_cell_length_b   5.05255344
_cell_length_c   10.91869917
_cell_angle_alpha   91.19733184
_cell_angle_beta   90.00000152
_cell_angle_gamma   90.00000000
_symmetry_Int_Tables_number   1
_chemical_formula_structural   AlCrCN
_chemical_formula_sum   'Al4 Cr4 C4 N4'
_cell_volume   174.73144550
_cell_formula_units_Z   4
loop_
 _symmetry_equiv_pos_site_id
 _symmetry_equiv_pos_as_xyz
  1  'x, y, z'
loop_
 _atom_site_type_symbol
 _atom_site_label
 _atom_site_symmetry_multiplicity
 _atom_site_fract_x
 _atom_site_fract_y
 _atom_site_fract_z
 _atom_site_occupancy
  Al  Al0  1  0.49999950  0.99455972  0.08508749  1
  Al  Al1  1  0.99999950  0.02021057  0.33770284  1
  Al  Al2  1  0.00000050  0.47887132  0.16314038  1
  Al  Al3  1  0.00000050  0.50018064  0.66404065  1
  Cr  Cr4  1  0.49999950  -0.00125428  0.58404400  1
  Cr  Cr5  1  0.99999950  0.00243636  0.83154060  1
  Cr  Cr6  1  0.50000050  0.53507306  0.42212458  1
  Cr  Cr7  1  0.50000050  0.49720003  0.90972181  1
  C  C8  1  0.49999950  0.59978393  0.06917459  1
  C  C9  1  0.99999950  0.61196671  0.33871583  1
  C  C10  1  0.50000050  0.16078784  0.43117052  1
  C  C11  1  0.50000050  0.12482899  0.90810955  1
  N  N12  1  0.49999950  0.62468666  0.59351297  1
  N  N13  1  0.99999950  0.62652837  0.82910827  1
  N  N14  1  0.00000050  0.10338206  0.16864206  1
  N  N15  1  0.00000050  0.12075800  0.66416387  1
