# generated using pymatgen
data_AlReCN
_symmetry_space_group_name_H-M   'P 1'
_cell_length_a   3.16538976
_cell_length_b   5.21209855
_cell_length_c   11.47755901
_cell_angle_alpha   93.17121299
_cell_angle_beta   90.00000160
_cell_angle_gamma   89.99999989
_symmetry_Int_Tables_number   1
_chemical_formula_structural   AlReCN
_chemical_formula_sum   'Al4 Re4 C4 N4'
_cell_volume   189.07050957
_cell_formula_units_Z   4
loop_
 _symmetry_equiv_pos_site_id
 _symmetry_equiv_pos_as_xyz
  1  'x, y, z'
loop_
 _atom_site_type_symbol
 _atom_site_label
 _atom_site_symmetry_multiplicity
 _atom_site_fract_x
 _atom_site_fract_y
 _atom_site_fract_z
 _atom_site_occupancy
  Al  Al0  1  0.49999950  0.96254569  0.09261239  1
  Al  Al1  1  0.99999950  0.01143113  0.33189106  1
  Al  Al2  1  0.00000050  0.44804757  0.15773592  1
  Al  Al3  1  0.00000050  0.50764581  0.68104140  1
  Re  Re4  1  0.49999950  0.97468281  0.57097051  1
  Re  Re5  1  0.99999950  0.10501681  0.82714607  1
  Re  Re6  1  0.50000050  0.55131363  0.42003440  1
  Re  Re7  1  0.50000050  0.49315731  0.90718501  1
  C  C8  1  0.49999950  0.57408992  0.07359111  1
  C  C9  1  0.99999950  0.60873009  0.32416192  1
  C  C10  1  0.50000050  0.16152263  0.42436734  1
  C  C11  1  0.50000050  0.10534765  0.93539180  1
  N  N12  1  0.49999950  0.59585210  0.60167953  1
  N  N13  1  0.99999950  0.68784819  0.83097411  1
  N  N14  1  0.00000050  0.08482672  0.17212396  1
  N  N15  1  0.00000050  0.12794196  0.64909347  1
