# generated using pymatgen
data_HfAlCN
_symmetry_space_group_name_H-M   'P 1'
_cell_length_a   3.56698106
_cell_length_b   4.47310785
_cell_length_c   12.77581273
_cell_angle_alpha   89.94377706
_cell_angle_beta   90.00000202
_cell_angle_gamma   90.00000000
_symmetry_Int_Tables_number   1
_chemical_formula_structural   HfAlCN
_chemical_formula_sum   'Hf4 Al4 C4 N4'
_cell_volume   203.84426665
_cell_formula_units_Z   4
loop_
 _symmetry_equiv_pos_site_id
 _symmetry_equiv_pos_as_xyz
  1  'x, y, z'
loop_
 _atom_site_type_symbol
 _atom_site_label
 _atom_site_symmetry_multiplicity
 _atom_site_fract_x
 _atom_site_fract_y
 _atom_site_fract_z
 _atom_site_occupancy
  Al  Al0  1  0.49999950  0.05203023  0.09850000  1
  Al  Al1  1  0.99999950  0.05886800  0.31992864  1
  Al  Al2  1  0.00000050  0.53741897  0.16382025  1
  Al  Al3  1  0.00000050  0.54682829  0.67020311  1
  Hf  Hf4  1  0.49999950  0.06017629  0.58048178  1
  Hf  Hf5  1  0.99999950  0.06103158  0.83088457  1
  Hf  Hf6  1  0.50000050  0.56236978  0.40470847  1
  Hf  Hf7  1  0.50000050  0.56149690  0.92855286  1
  C  C8  1  0.49999950  0.56865167  0.09056808  1
  C  C9  1  0.99999950  0.56886122  0.31779032  1
  C  C10  1  0.50000050  0.06412860  0.41698168  1
  C  C11  1  0.50000050  0.06354653  0.92317613  1
  N  N12  1  0.49999950  0.56818679  0.59881347  1
  N  N13  1  0.99999950  0.56537614  0.82305508  1
  N  N14  1  0.00000050  0.07838696  0.16700116  1
  N  N15  1  0.00000050  0.08264204  0.66553438  1
