# generated using pymatgen
data_AlMoCN
_symmetry_space_group_name_H-M   'P 1'
_cell_length_a   3.39973085
_cell_length_b   4.31751837
_cell_length_c   12.33370747
_cell_angle_alpha   91.67455652
_cell_angle_beta   90.00000186
_cell_angle_gamma   90.00000000
_symmetry_Int_Tables_number   1
_chemical_formula_structural   AlMoCN
_chemical_formula_sum   'Al4 Mo4 C4 N4'
_cell_volume   180.96178124
_cell_formula_units_Z   4
loop_
 _symmetry_equiv_pos_site_id
 _symmetry_equiv_pos_as_xyz
  1  'x, y, z'
loop_
 _atom_site_type_symbol
 _atom_site_label
 _atom_site_symmetry_multiplicity
 _atom_site_fract_x
 _atom_site_fract_y
 _atom_site_fract_z
 _atom_site_occupancy
  Al  Al0  1  0.49999950  0.06722143  0.09611897  1
  Al  Al1  1  0.99999950  0.09163109  0.32651584  1
  Al  Al2  1  0.00000050  0.57274164  0.16572697  1
  Al  Al3  1  0.00000050  0.53559611  0.66076066  1
  Mo  Mo4  1  0.49999950  0.02297627  0.57249339  1
  Mo  Mo5  1  0.99999950  0.05526403  0.84036133  1
  Mo  Mo6  1  0.50000050  0.60421455  0.41808866  1
  Mo  Mo7  1  0.50000050  0.54664767  0.92431158  1
  C  C8  1  0.49999950  0.56713600  0.08539758  1
  C  C9  1  0.99999950  0.59106451  0.33023871  1
  C  C10  1  0.50000050  0.10109740  0.41347255  1
  C  C11  1  0.50000050  0.05050729  0.93049383  1
  N  N12  1  0.49999950  0.53166947  0.59374506  1
  N  N13  1  0.99999950  0.54967940  0.81150005  1
  N  N14  1  0.00000050  0.07478951  0.17162063  1
  N  N15  1  0.00000050  0.03776361  0.65915418  1
