# generated using pymatgen
data_AlOsCN
_symmetry_space_group_name_H-M   'P 1'
_cell_length_a   3.07761883
_cell_length_b   5.35886360
_cell_length_c   11.34619051
_cell_angle_alpha   90.60097831
_cell_angle_beta   90.00000157
_cell_angle_gamma   90.00000000
_symmetry_Int_Tables_number   1
_chemical_formula_structural   AlOsCN
_chemical_formula_sum   'Al4 Os4 C4 N4'
_cell_volume   187.11720160
_cell_formula_units_Z   4
loop_
 _symmetry_equiv_pos_site_id
 _symmetry_equiv_pos_as_xyz
  1  'x, y, z'
loop_
 _atom_site_type_symbol
 _atom_site_label
 _atom_site_symmetry_multiplicity
 _atom_site_fract_x
 _atom_site_fract_y
 _atom_site_fract_z
 _atom_site_occupancy
  Al  Al0  1  0.49999950  0.94185777  0.09092444  1
  Al  Al1  1  0.99999950  0.95725024  0.32778427  1
  Al  Al2  1  0.00000050  0.42394474  0.16493391  1
  Al  Al3  1  0.00000050  0.61115307  0.66607725  1
  Os  Os4  1  0.49999950  0.05532011  0.59402987  1
  Os  Os5  1  0.99999950  0.07852902  0.81947516  1
  Os  Os6  1  0.50000050  0.46400477  0.42728053  1
  Os  Os7  1  0.50000050  0.46528330  0.90734323  1
  C  C8  1  0.49999950  0.56363594  0.07165246  1
  C  C9  1  0.99999950  0.57484589  0.33385127  1
  C  C10  1  0.50000050  0.10450161  0.41901088  1
  C  C11  1  0.50000050  0.09118079  0.93174167  1
  N  N12  1  0.49999950  0.67316733  0.57867432  1
  N  N13  1  0.99999950  0.67145060  0.83254637  1
  N  N14  1  0.00000050  0.06604991  0.17070467  1
  N  N15  1  0.00000050  0.25782492  0.66396969  1
