# generated using pymatgen
data_NbAlCN
_symmetry_space_group_name_H-M   'P 1'
_cell_length_a   3.31817184
_cell_length_b   5.30128518
_cell_length_c   11.49839451
_cell_angle_alpha   90.73054537
_cell_angle_beta   90.00000169
_cell_angle_gamma   90.00000000
_symmetry_Int_Tables_number   1
_chemical_formula_structural   NbAlCN
_chemical_formula_sum   'Nb4 Al4 C4 N4'
_cell_volume   202.24693228
_cell_formula_units_Z   4
loop_
 _symmetry_equiv_pos_site_id
 _symmetry_equiv_pos_as_xyz
  1  'x, y, z'
loop_
 _atom_site_type_symbol
 _atom_site_label
 _atom_site_symmetry_multiplicity
 _atom_site_fract_x
 _atom_site_fract_y
 _atom_site_fract_z
 _atom_site_occupancy
  Al  Al0  1  0.49999950  0.98320930  0.09570905  1
  Al  Al1  1  0.99999950  0.00109736  0.32964416  1
  Al  Al2  1  0.00000050  0.46652804  0.16208323  1
  Al  Al3  1  0.00000050  0.56535526  0.66247870  1
  Nb  Nb4  1  0.49999950  0.02545408  0.60100584  1
  Nb  Nb5  1  0.99999950  0.99516142  0.82203935  1
  Nb  Nb6  1  0.50000050  0.50269688  0.41543932  1
  Nb  Nb7  1  0.50000050  0.49147855  0.91946369  1
  C  C8  1  0.49999950  0.60112614  0.08399817  1
  C  C9  1  0.99999950  0.61149272  0.32627563  1
  C  C10  1  0.50000050  0.11354611  0.42073119  1
  C  C11  1  0.50000050  0.09955005  0.92323206  1
  N  N12  1  0.49999950  0.62627344  0.58200306  1
  N  N13  1  0.99999950  0.60764701  0.82854598  1
  N  N14  1  0.00000050  0.10059301  0.16934653  1
  N  N15  1  0.00000050  0.20879064  0.65800403  1
