# generated using pymatgen
data_ZrAlCN
_symmetry_space_group_name_H-M   'P 1'
_cell_length_a   3.55844850
_cell_length_b   4.58462717
_cell_length_c   12.78795746
_cell_angle_alpha   89.90460315
_cell_angle_beta   90.00000202
_cell_angle_gamma   90.00000000
_symmetry_Int_Tables_number   1
_chemical_formula_structural   ZrAlCN
_chemical_formula_sum   'Zr4 Al4 C4 N4'
_cell_volume   208.62449068
_cell_formula_units_Z   4
loop_
 _symmetry_equiv_pos_site_id
 _symmetry_equiv_pos_as_xyz
  1  'x, y, z'
loop_
 _atom_site_type_symbol
 _atom_site_label
 _atom_site_symmetry_multiplicity
 _atom_site_fract_x
 _atom_site_fract_y
 _atom_site_fract_z
 _atom_site_occupancy
  Al  Al0  1  0.49999950  0.04057988  0.09909284  1
  Al  Al1  1  0.99999950  0.05084730  0.31921181  1
  Al  Al2  1  0.00000050  0.52120148  0.16381934  1
  Al  Al3  1  0.00000050  0.53530365  0.67021162  1
  Zr  Zr4  1  0.49999950  0.05672553  0.57925703  1
  Zr  Zr5  1  0.99999950  0.05780966  0.83114471  1
  Zr  Zr6  1  0.50000050  0.55991220  0.40407407  1
  Zr  Zr7  1  0.50000050  0.55872686  0.93035630  1
  C  C8  1  0.49999950  0.57730675  0.09245696  1
  C  C9  1  0.99999950  0.57848751  0.31592829  1
  C  C10  1  0.50000050  0.06544064  0.41417045  1
  C  C11  1  0.50000050  0.06438740  0.92700968  1
  N  N12  1  0.49999950  0.57430484  0.59855631  1
  N  N13  1  0.99999950  0.56886717  0.82240939  1
  N  N14  1  0.00000050  0.08921986  0.16717220  1
  N  N15  1  0.00000050  0.10087927  0.66512900  1
