# generated using pymatgen
data_Al3B(CN)2
_symmetry_space_group_name_H-M   'P 1'
_cell_length_a   6.03459078
_cell_length_b   5.75018251
_cell_length_c   6.50486782
_cell_angle_alpha   106.67743123
_cell_angle_beta   110.20616490
_cell_angle_gamma   54.44437182
_symmetry_Int_Tables_number   1
_chemical_formula_structural   Al3B(CN)2
_chemical_formula_sum   'Al6 B2 C4 N4'
_cell_volume   171.23205981
_cell_formula_units_Z   2
loop_
 _symmetry_equiv_pos_site_id
 _symmetry_equiv_pos_as_xyz
  1  'x, y, z'
loop_
 _atom_site_type_symbol
 _atom_site_label
 _atom_site_symmetry_multiplicity
 _atom_site_fract_x
 _atom_site_fract_y
 _atom_site_fract_z
 _atom_site_occupancy
  Al  Al0  1  0.81768912  0.20623195  0.78469828  1
  Al  Al1  1  0.85546690  0.16556694  0.27366749  1
  Al  Al2  1  0.31710513  0.67036803  0.48185149  1
  Al  Al3  1  0.33864552  0.67655824  0.01999229  1
  Al  Al4  1  0.42932245  0.08647964  0.36831676  1
  Al  Al5  1  0.44648613  0.05102984  0.88270120  1
  B  B6  1  0.85240319  0.60524434  0.65362603  1
  B  B7  1  0.87098470  0.60296708  0.18219291  1
  C  C8  1  0.67584659  0.94564774  0.67207538  1
  C  C9  1  0.16003358  0.47042139  0.79835651  1
  C  C10  1  0.73457979  0.41250607  0.54661258  1
  C  C11  1  0.20124372  0.88184410  0.76094314  1
  N  N12  1  0.68088887  0.93261818  0.17048376  1
  N  N13  1  0.15128587  0.46570388  0.31041706  1
  N  N14  1  0.73386192  0.42706953  0.06655756  1
  N  N15  1  0.23415650  0.89974302  0.27750757  1
