# generated using pymatgen
data_AlVCN
_symmetry_space_group_name_H-M   'P 1'
_cell_length_a   3.22700802
_cell_length_b   5.03611870
_cell_length_c   11.14957530
_cell_angle_alpha   89.92531304
_cell_angle_beta   90.00000159
_cell_angle_gamma   90.00000000
_symmetry_Int_Tables_number   1
_chemical_formula_structural   AlVCN
_chemical_formula_sum   'Al4 V4 C4 N4'
_cell_volume   181.19823314
_cell_formula_units_Z   4
loop_
 _symmetry_equiv_pos_site_id
 _symmetry_equiv_pos_as_xyz
  1  'x, y, z'
loop_
 _atom_site_type_symbol
 _atom_site_label
 _atom_site_symmetry_multiplicity
 _atom_site_fract_x
 _atom_site_fract_y
 _atom_site_fract_z
 _atom_site_occupancy
  Al  Al0  1  0.49999950  0.00040890  0.08817282  1
  Al  Al1  1  0.99999950  0.00906995  0.33310541  1
  Al  Al2  1  0.00000050  0.48225170  0.16308009  1
  Al  Al3  1  0.00000050  0.51050256  0.66497678  1
  V  V4  1  0.49999950  0.01070632  0.58565617  1
  V  V5  1  0.99999950  0.00834312  0.83196129  1
  V  V6  1  0.50000050  0.51423275  0.42132588  1
  V  V7  1  0.50000050  0.51277763  0.91373577  1
  C  C8  1  0.49999950  0.60457727  0.07387949  1
  C  C9  1  0.99999950  0.60286885  0.33674448  1
  C  C10  1  0.50000050  0.13041655  0.42433258  1
  C  C11  1  0.50000050  0.12641067  0.91394057  1
  N  N12  1  0.49999950  0.62523000  0.59065411  1
  N  N13  1  0.99999950  0.62624896  0.82531013  1
  N  N14  1  0.00000050  0.10378474  0.16859636  1
  N  N15  1  0.00000050  0.13217004  0.66452809  1
