# generated using pymatgen
data_TaAlCN
_symmetry_space_group_name_H-M   'P 1'
_cell_length_a   3.30560235
_cell_length_b   5.32884774
_cell_length_c   11.51766099
_cell_angle_alpha   90.78696241
_cell_angle_beta   90.00000169
_cell_angle_gamma   90.00000000
_symmetry_Int_Tables_number   1
_chemical_formula_structural   TaAlCN
_chemical_formula_sum   'Ta4 Al4 C4 N4'
_cell_volume   202.86505580
_cell_formula_units_Z   4
loop_
 _symmetry_equiv_pos_site_id
 _symmetry_equiv_pos_as_xyz
  1  'x, y, z'
loop_
 _atom_site_type_symbol
 _atom_site_label
 _atom_site_symmetry_multiplicity
 _atom_site_fract_x
 _atom_site_fract_y
 _atom_site_fract_z
 _atom_site_occupancy
  Al  Al0  1  0.49999950  0.97967191  0.09606218  1
  Al  Al1  1  0.99999950  0.99844852  0.33001681  1
  Al  Al2  1  0.00000050  0.46424636  0.16233375  1
  Al  Al3  1  0.00000050  0.57441567  0.66176585  1
  Ta  Ta4  1  0.49999950  0.02481226  0.60215337  1
  Ta  Ta5  1  0.99999950  0.99394903  0.81934342  1
  Ta  Ta6  1  0.50000050  0.49901638  0.41464883  1
  Ta  Ta7  1  0.50000050  0.48603075  0.91977376  1
  C  C8  1  0.49999950  0.59929776  0.08417188  1
  C  C9  1  0.99999950  0.61112492  0.32593742  1
  C  C10  1  0.50000050  0.11255411  0.42203837  1
  C  C11  1  0.50000050  0.09967123  0.92327463  1
  N  N12  1  0.49999950  0.62903176  0.57823323  1
  N  N13  1  0.99999950  0.61089895  0.83133839  1
  N  N14  1  0.00000050  0.09890961  0.16982275  1
  N  N15  1  0.00000050  0.21792077  0.65908536  1
