# generated using pymatgen
data_TiAl3(CN)2
_symmetry_space_group_name_H-M   'P 1'
_cell_length_a   6.09436695
_cell_length_b   5.78631250
_cell_length_c   6.65492577
_cell_angle_alpha   106.33820580
_cell_angle_beta   104.93166023
_cell_angle_gamma   56.24303767
_symmetry_Int_Tables_number   1
_chemical_formula_structural   TiAl3(CN)2
_chemical_formula_sum   'Ti2 Al6 C4 N4'
_cell_volume   185.71639417
_cell_formula_units_Z   2
loop_
 _symmetry_equiv_pos_site_id
 _symmetry_equiv_pos_as_xyz
  1  'x, y, z'
loop_
 _atom_site_type_symbol
 _atom_site_label
 _atom_site_symmetry_multiplicity
 _atom_site_fract_x
 _atom_site_fract_y
 _atom_site_fract_z
 _atom_site_occupancy
  Al  Al0  1  0.88312135  0.27179472  0.78438203  1
  Al  Al1  1  0.81662050  0.20615094  0.25447071  1
  Al  Al2  1  0.32689846  0.69213931  0.49315011  1
  Al  Al3  1  0.32567588  0.65535084  0.00886861  1
  Al  Al4  1  0.41695711  0.05317290  0.35867959  1
  Al  Al5  1  0.43223368  0.02355753  0.87222279  1
  Ti  Ti6  1  0.00359238  0.62174859  0.65414139  1
  Ti  Ti7  1  0.93276695  0.60315795  0.15005030  1
  C  C8  1  0.61162622  0.82609821  0.59947151  1
  C  C9  1  0.14574116  0.42969612  0.91096823  1
  C  C10  1  0.71754458  0.47778479  0.53599699  1
  C  C11  1  0.17563007  0.87041663  0.77132744  1
  N  N12  1  0.63420309  0.99455111  0.15905579  1
  N  N13  1  0.18130926  0.44709897  0.39538318  1
  N  N14  1  0.71194097  0.42752678  0.04036000  1
  N  N15  1  0.18413833  0.89975463  0.26147133  1
