# generated using pymatgen
data_Al3Cr(CN)2
_symmetry_space_group_name_H-M   'P 1'
_cell_length_a   5.94629769
_cell_length_b   5.90472133
_cell_length_c   6.47085216
_cell_angle_alpha   105.59574304
_cell_angle_beta   105.25724692
_cell_angle_gamma   55.74411982
_symmetry_Int_Tables_number   1
_chemical_formula_structural   Al3Cr(CN)2
_chemical_formula_sum   'Al6 Cr2 C4 N4'
_cell_volume   179.08070711
_cell_formula_units_Z   2
loop_
 _symmetry_equiv_pos_site_id
 _symmetry_equiv_pos_as_xyz
  1  'x, y, z'
loop_
 _atom_site_type_symbol
 _atom_site_label
 _atom_site_symmetry_multiplicity
 _atom_site_fract_x
 _atom_site_fract_y
 _atom_site_fract_z
 _atom_site_occupancy
  Al  Al0  1  0.84720864  0.17785673  0.75837073  1
  Al  Al1  1  0.84988830  0.16239816  0.25020202  1
  Al  Al2  1  0.33547562  0.68272105  0.49933834  1
  Al  Al3  1  0.33366738  0.66704818  0.00657066  1
  Al  Al4  1  0.41910778  0.08135405  0.36883778  1
  Al  Al5  1  0.42377787  0.06243291  0.87781722  1
  Cr  Cr6  1  0.91513310  0.60057205  0.62535376  1
  Cr  Cr7  1  0.91503576  0.58680562  0.13206746  1
  C  C8  1  0.64686171  0.96874949  0.65018797  1
  C  C9  1  0.10608904  0.48057055  0.91172209  1
  C  C10  1  0.74128840  0.41090520  0.52859643  1
  C  C11  1  0.22312102  0.87423278  0.77922739  1
  N  N12  1  0.64968125  0.97704971  0.15669583  1
  N  N13  1  0.13641266  0.47739581  0.39162414  1
  N  N14  1  0.72946155  0.39744363  0.03828337  1
  N  N15  1  0.22778994  0.89246407  0.27510482  1
