# generated using pymatgen
data_Al3Co(CN)2
_symmetry_space_group_name_H-M   'P 1'
_cell_length_a   5.81932116
_cell_length_b   5.86215658
_cell_length_c   6.52318118
_cell_angle_alpha   104.94371449
_cell_angle_beta   104.43967637
_cell_angle_gamma   56.19804428
_symmetry_Int_Tables_number   1
_chemical_formula_structural   Al3Co(CN)2
_chemical_formula_sum   'Al6 Co2 C4 N4'
_cell_volume   177.10004343
_cell_formula_units_Z   2
loop_
 _symmetry_equiv_pos_site_id
 _symmetry_equiv_pos_as_xyz
  1  'x, y, z'
loop_
 _atom_site_type_symbol
 _atom_site_label
 _atom_site_symmetry_multiplicity
 _atom_site_fract_x
 _atom_site_fract_y
 _atom_site_fract_z
 _atom_site_occupancy
  Al  Al0  1  0.84138451  0.18959126  0.76569265  1
  Al  Al1  1  0.84725579  0.16825987  0.24961263  1
  Al  Al2  1  0.32478431  0.68116053  0.49470120  1
  Al  Al3  1  0.34442415  0.67125764  0.01266660  1
  Al  Al4  1  0.42020906  0.07905772  0.37124819  1
  Al  Al5  1  0.43336881  0.06456588  0.88731417  1
  Co  Co6  1  0.92385477  0.58777623  0.62420819  1
  Co  Co7  1  0.92395043  0.58864648  0.12419090  1
  C  C8  1  0.64759240  0.96267668  0.65081651  1
  C  C9  1  0.09691928  0.48888547  0.89610100  1
  C  C10  1  0.73747784  0.40217299  0.53013566  1
  C  C11  1  0.22329859  0.87564468  0.77788903  1
  N  N12  1  0.64320328  0.98372077  0.15860915  1
  N  N13  1  0.13423233  0.47360461  0.39338574  1
  N  N14  1  0.73020116  0.39388509  0.03826572  1
  N  N15  1  0.22784331  0.88909409  0.27516265  1
