# generated using pymatgen
data_AlWCN
_symmetry_space_group_name_H-M   'P 1'
_cell_length_a   3.12617021
_cell_length_b   5.48710793
_cell_length_c   11.28707181
_cell_angle_alpha   92.47113139
_cell_angle_beta   90.00000157
_cell_angle_gamma   89.99999990
_symmetry_Int_Tables_number   1
_chemical_formula_structural   AlWCN
_chemical_formula_sum   'Al4 W4 C4 N4'
_cell_volume   193.43424414
_cell_formula_units_Z   4
loop_
 _symmetry_equiv_pos_site_id
 _symmetry_equiv_pos_as_xyz
  1  'x, y, z'
loop_
 _atom_site_type_symbol
 _atom_site_label
 _atom_site_symmetry_multiplicity
 _atom_site_fract_x
 _atom_site_fract_y
 _atom_site_fract_z
 _atom_site_occupancy
  Al  Al0  1  0.49999950  0.95516226  0.09053194  1
  Al  Al1  1  0.99999950  0.98991469  0.33329955  1
  Al  Al2  1  0.00000050  0.43471325  0.16113722  1
  Al  Al3  1  0.00000050  0.58020267  0.66907993  1
  W  W4  1  0.49999950  0.01091492  0.59262311  1
  W  W5  1  0.99999950  0.03793074  0.81643587  1
  W  W6  1  0.50000050  0.48864545  0.41745306  1
  W  W7  1  0.50000050  0.46629135  0.91364585  1
  C  C8  1  0.49999950  0.58039555  0.07681888  1
  C  C9  1  0.99999950  0.60974283  0.32600891  1
  C  C10  1  0.50000050  0.13395616  0.42216338  1
  C  C11  1  0.50000050  0.09473839  0.92789390  1
  N  N12  1  0.49999950  0.64276446  0.57864803  1
  N  N13  1  0.99999950  0.65658687  0.83401460  1
  N  N14  1  0.00000050  0.08229024  0.17137289  1
  N  N15  1  0.00000050  0.23575016  0.66887288  1
