# generated using pymatgen
data_Al3Mo(CN)2
_symmetry_space_group_name_H-M   'P 1'
_cell_length_a   6.05769201
_cell_length_b   6.09681070
_cell_length_c   6.51558539
_cell_angle_alpha   105.41004913
_cell_angle_beta   105.41678678
_cell_angle_gamma   55.55968215
_symmetry_Int_Tables_number   1
_chemical_formula_structural   Al3Mo(CN)2
_chemical_formula_sum   'Al6 Mo2 C4 N4'
_cell_volume   189.29113394
_cell_formula_units_Z   2
loop_
 _symmetry_equiv_pos_site_id
 _symmetry_equiv_pos_as_xyz
  1  'x, y, z'
loop_
 _atom_site_type_symbol
 _atom_site_label
 _atom_site_symmetry_multiplicity
 _atom_site_fract_x
 _atom_site_fract_y
 _atom_site_fract_z
 _atom_site_occupancy
  Al  Al0  1  0.84104485  0.17005521  0.75026764  1
  Al  Al1  1  0.84451016  0.15952803  0.25046481  1
  Al  Al2  1  0.34877837  0.68286546  0.50285098  1
  Al  Al3  1  0.32860593  0.67243563  0.00481211  1
  Al  Al4  1  0.41926585  0.07858991  0.36910908  1
  Al  Al5  1  0.41159193  0.06845933  0.87411711  1
  Mo  Mo6  1  0.92472784  0.60184612  0.62503135  1
  Mo  Mo7  1  0.90422454  0.58800663  0.13687114  1
  C  C8  1  0.63454959  0.98198896  0.65240599  1
  C  C9  1  0.12244225  0.47828313  0.91870080  1
  C  C10  1  0.74591215  0.40056664  0.52655710  1
  C  C11  1  0.21985013  0.87774614  0.77800616  1
  N  N12  1  0.63915339  0.98817154  0.15579340  1
  N  N13  1  0.16863594  0.46674682  0.39703843  1
  N  N14  1  0.72181226  0.38937123  0.03368255  1
  N  N15  1  0.22489479  0.89533922  0.27429135  1
