# generated using pymatgen
data_Al3Os(CN)2
_symmetry_space_group_name_H-M   'P 1'
_cell_length_a   6.01276071
_cell_length_b   6.05078557
_cell_length_c   6.55497779
_cell_angle_alpha   105.21558654
_cell_angle_beta   105.33649180
_cell_angle_gamma   55.58540851
_symmetry_Int_Tables_number   1
_chemical_formula_structural   Al3Os(CN)2
_chemical_formula_sum   'Al6 Os2 C4 N4'
_cell_volume   187.81238272
_cell_formula_units_Z   2
loop_
 _symmetry_equiv_pos_site_id
 _symmetry_equiv_pos_as_xyz
  1  'x, y, z'
loop_
 _atom_site_type_symbol
 _atom_site_label
 _atom_site_symmetry_multiplicity
 _atom_site_fract_x
 _atom_site_fract_y
 _atom_site_fract_z
 _atom_site_occupancy
  Al  Al0  1  0.83415522  0.18016350  0.75492136  1
  Al  Al1  1  0.83773022  0.16445032  0.24531782  1
  Al  Al2  1  0.34602869  0.68477308  0.50262306  1
  Al  Al3  1  0.33746901  0.67211287  0.00533920  1
  Al  Al4  1  0.41558661  0.07510491  0.36914110  1
  Al  Al5  1  0.41801108  0.06231792  0.88027428  1
  Os  Os6  1  0.92926955  0.60235284  0.62809745  1
  Os  Os7  1  0.92439640  0.58441778  0.13622273  1
  C  C8  1  0.63350361  0.98050958  0.65532073  1
  C  C9  1  0.12079032  0.47285652  0.90446771  1
  C  C10  1  0.74762819  0.39948330  0.52511862  1
  C  C11  1  0.21579597  0.87984069  0.77605630  1
  N  N12  1  0.62929098  0.99268393  0.15977275  1
  N  N13  1  0.16974739  0.46925759  0.40527478  1
  N  N14  1  0.71946398  0.38783765  0.03037359  1
  N  N15  1  0.22113279  0.89183749  0.27167853  1
