# generated using pymatgen
data_Al3Re(CN)2
_symmetry_space_group_name_H-M   'P 1'
_cell_length_a   6.14424994
_cell_length_b   6.14080009
_cell_length_c   6.38222092
_cell_angle_alpha   105.37799441
_cell_angle_beta   105.51869914
_cell_angle_gamma   55.10319316
_symmetry_Int_Tables_number   1
_chemical_formula_structural   Al3Re(CN)2
_chemical_formula_sum   'Al6 Re2 C4 N4'
_cell_volume   188.37912637
_cell_formula_units_Z   2
loop_
 _symmetry_equiv_pos_site_id
 _symmetry_equiv_pos_as_xyz
  1  'x, y, z'
loop_
 _atom_site_type_symbol
 _atom_site_label
 _atom_site_symmetry_multiplicity
 _atom_site_fract_x
 _atom_site_fract_y
 _atom_site_fract_z
 _atom_site_occupancy
  Al  Al0  1  0.84122313  0.16856756  0.75464049  1
  Al  Al1  1  0.84366136  0.15960564  0.24907697  1
  Al  Al2  1  0.34534711  0.68349742  0.50379517  1
  Al  Al3  1  0.32622827  0.67161257  0.00339071  1
  Al  Al4  1  0.42428678  0.06740187  0.36868888  1
  Al  Al5  1  0.40685697  0.07460933  0.87175252  1
  Re  Re6  1  0.91639202  0.59657751  0.60526298  1
  Re  Re7  1  0.90235903  0.59240750  0.14747970  1
  C  C8  1  0.64256441  0.97843961  0.65844663  1
  C  C9  1  0.11510268  0.48370465  0.91082465  1
  C  C10  1  0.74069476  0.40350389  0.52940175  1
  C  C11  1  0.21923382  0.88656023  0.78076028  1
  N  N12  1  0.64272249  0.98494371  0.15479706  1
  N  N13  1  0.19157784  0.45552257  0.40027134  1
  N  N14  1  0.71998379  0.39419163  0.03576830  1
  N  N15  1  0.22176553  0.89885432  0.27564262  1
