# generated using pymatgen
data_HfAl3(CN)2
_symmetry_space_group_name_H-M   'P 1'
_cell_length_a   5.87880029
_cell_length_b   5.86901766
_cell_length_c   6.81838816
_cell_angle_alpha   106.28298159
_cell_angle_beta   105.43880717
_cell_angle_gamma   60.81245257
_symmetry_Int_Tables_number   1
_chemical_formula_structural   HfAl3(CN)2
_chemical_formula_sum   'Hf2 Al6 C4 N4'
_cell_volume   194.77734454
_cell_formula_units_Z   2
loop_
 _symmetry_equiv_pos_site_id
 _symmetry_equiv_pos_as_xyz
  1  'x, y, z'
loop_
 _atom_site_type_symbol
 _atom_site_label
 _atom_site_symmetry_multiplicity
 _atom_site_fract_x
 _atom_site_fract_y
 _atom_site_fract_z
 _atom_site_occupancy
  Al  Al0  1  0.87772402  0.21800963  0.77966936  1
  Al  Al1  1  0.82862147  0.18000566  0.24963317  1
  Al  Al2  1  0.35726588  0.68282619  0.49977492  1
  Al  Al3  1  0.34442514  0.65324426  0.00875260  1
  Al  Al4  1  0.40842292  0.09034805  0.36357685  1
  Al  Al5  1  0.42183750  0.07147821  0.87861713  1
  Hf  Hf6  1  0.97110765  0.61607445  0.64431955  1
  Hf  Hf7  1  0.92463936  0.61368584  0.14690601  1
  C  C8  1  0.60149139  0.97237005  0.63161099  1
  C  C9  1  0.14209715  0.43431437  0.90862247  1
  C  C10  1  0.72057850  0.38826147  0.52542235  1
  C  C11  1  0.20558815  0.85813242  0.77038565  1
  N  N12  1  0.61206431  0.99579054  0.14892163  1
  N  N13  1  0.17071476  0.45126994  0.39387794  1
  N  N14  1  0.71447735  0.39031581  0.03635840  1
  N  N15  1  0.19894445  0.88387308  0.26355098  1
