# generated using pymatgen
data_Al3Ni(CN)2
_symmetry_space_group_name_H-M   'P 1'
_cell_length_a   5.74934620
_cell_length_b   5.87477150
_cell_length_c   6.59256926
_cell_angle_alpha   105.09574781
_cell_angle_beta   104.95303083
_cell_angle_gamma   56.98995806
_symmetry_Int_Tables_number   1
_chemical_formula_structural   Al3Ni(CN)2
_chemical_formula_sum   'Al6 Ni2 C4 N4'
_cell_volume   178.41828706
_cell_formula_units_Z   2
loop_
 _symmetry_equiv_pos_site_id
 _symmetry_equiv_pos_as_xyz
  1  'x, y, z'
loop_
 _atom_site_type_symbol
 _atom_site_label
 _atom_site_symmetry_multiplicity
 _atom_site_fract_x
 _atom_site_fract_y
 _atom_site_fract_z
 _atom_site_occupancy
  Al  Al0  1  0.83745681  0.19735378  0.76509017  1
  Al  Al1  1  0.84791633  0.17146670  0.25047892  1
  Al  Al2  1  0.32603474  0.67912778  0.49150494  1
  Al  Al3  1  0.34364207  0.67202941  0.01477463  1
  Al  Al4  1  0.42384659  0.07869688  0.37120460  1
  Al  Al5  1  0.43023675  0.06572485  0.88992084  1
  Ni  Ni6  1  0.93291475  0.59388444  0.62775003  1
  Ni  Ni7  1  0.92413431  0.58986454  0.12363515  1
  C  C8  1  0.64039457  0.96813015  0.65560957  1
  C  C9  1  0.09929442  0.48192054  0.89560369  1
  C  C10  1  0.73842071  0.40133360  0.52980752  1
  C  C11  1  0.21650284  0.86886062  0.77340639  1
  N  N12  1  0.63632831  0.99224309  0.15894115  1
  N  N13  1  0.14728339  0.46137500  0.39200434  1
  N  N14  1  0.72797463  0.39041241  0.03582352  1
  N  N15  1  0.22761879  0.88757621  0.27444454  1
