# generated using pymatgen
data_TiCrCN
_symmetry_space_group_name_H-M   'P 1'
_cell_length_a   8.26458636
_cell_length_b   4.14588558
_cell_length_c   4.24023275
_cell_angle_alpha   90.00000000
_cell_angle_beta   90.00000000
_cell_angle_gamma   90.00000000
_symmetry_Int_Tables_number   1
_chemical_formula_structural   TiCrCN
_chemical_formula_sum   'Ti4 Cr4 C4 N4'
_cell_volume   145.28745967
_cell_formula_units_Z   4
loop_
 _symmetry_equiv_pos_site_id
 _symmetry_equiv_pos_as_xyz
  1  'x, y, z'
loop_
 _atom_site_type_symbol
 _atom_site_label
 _atom_site_symmetry_multiplicity
 _atom_site_fract_x
 _atom_site_fract_y
 _atom_site_fract_z
 _atom_site_occupancy
  Ti  Ti0  1  -0.00000000  -0.00000000  0.00000000  1
  Ti  Ti1  1  0.25124113  0.50000000  0.00000000  1
  Ti  Ti2  1  0.50000000  0.50000000  0.50000000  1
  Ti  Ti3  1  0.74875887  0.50000000  -0.00000000  1
  Cr  Cr4  1  -0.00000000  0.50000000  0.50000000  1
  Cr  Cr5  1  0.24056017  -0.00000000  0.50000000  1
  Cr  Cr6  1  0.50000000  -0.00000000  0.00000000  1
  Cr  Cr7  1  0.75943983  -0.00000000  0.50000000  1
  C  C8  1  -0.00000000  -0.00000000  0.50000000  1
  C  C9  1  0.24708186  0.50000000  0.50000000  1
  C  C10  1  0.50000000  -0.00000000  0.50000000  1
  C  C11  1  0.75291814  0.50000000  0.50000000  1
  N  N12  1  -0.00000000  0.50000000  0.00000000  1
  N  N13  1  0.24979244  -0.00000000  0.00000000  1
  N  N14  1  0.50000000  0.50000000  0.00000000  1
  N  N15  1  0.75020756  -0.00000000  -0.00000000  1
