# generated using pymatgen
data_TaAl3(CN)2
_symmetry_space_group_name_H-M   'P 1'
_cell_length_a   6.05322067
_cell_length_b   6.06566169
_cell_length_c   6.65468674
_cell_angle_alpha   105.61424296
_cell_angle_beta   105.71468005
_cell_angle_gamma   56.04353033
_symmetry_Int_Tables_number   1
_chemical_formula_structural   TaAl3(CN)2
_chemical_formula_sum   'Ta2 Al6 C4 N4'
_cell_volume   192.95679173
_cell_formula_units_Z   2
loop_
 _symmetry_equiv_pos_site_id
 _symmetry_equiv_pos_as_xyz
  1  'x, y, z'
loop_
 _atom_site_type_symbol
 _atom_site_label
 _atom_site_symmetry_multiplicity
 _atom_site_fract_x
 _atom_site_fract_y
 _atom_site_fract_z
 _atom_site_occupancy
  Al  Al0  1  0.83571504  0.17170274  0.74703648  1
  Al  Al1  1  0.84011317  0.16557993  0.25294383  1
  Al  Al2  1  0.35473705  0.68586400  0.50456380  1
  Al  Al3  1  0.33076222  0.67238580  0.00736748  1
  Al  Al4  1  0.41551556  0.08354986  0.37196638  1
  Al  Al5  1  0.40651719  0.06642052  0.86959445  1
  Ta  Ta6  1  0.93774612  0.60238344  0.63395525  1
  Ta  Ta7  1  0.90899642  0.59154853  0.13329608  1
  C  C8  1  0.62446172  0.98557755  0.65110215  1
  C  C9  1  0.14360944  0.46566690  0.92190159  1
  C  C10  1  0.74322812  0.39795197  0.52471036  1
  C  C11  1  0.21518001  0.86979123  0.77496919  1
  N  N12  1  0.63386488  0.98716324  0.15531479  1
  N  N13  1  0.16376100  0.46907748  0.39336412  1
  N  N14  1  0.72456683  0.38897967  0.03499151  1
  N  N15  1  0.22122524  0.89635715  0.27292254  1
