# generated using pymatgen
data_Al3V(CN)2
_symmetry_space_group_name_H-M   'P 1'
_cell_length_a   5.96468943
_cell_length_b   5.90489662
_cell_length_c   6.51605095
_cell_angle_alpha   105.70293784
_cell_angle_beta   105.49805400
_cell_angle_gamma   56.09847836
_symmetry_Int_Tables_number   1
_chemical_formula_structural   Al3V(CN)2
_chemical_formula_sum   'Al6 V2 C4 N4'
_cell_volume   181.42488743
_cell_formula_units_Z   2
loop_
 _symmetry_equiv_pos_site_id
 _symmetry_equiv_pos_as_xyz
  1  'x, y, z'
loop_
 _atom_site_type_symbol
 _atom_site_label
 _atom_site_symmetry_multiplicity
 _atom_site_fract_x
 _atom_site_fract_y
 _atom_site_fract_z
 _atom_site_occupancy
  Al  Al0  1  0.84533792  0.17704950  0.75506742  1
  Al  Al1  1  0.84864782  0.16428260  0.25283049  1
  Al  Al2  1  0.34260045  0.68299160  0.50025020  1
  Al  Al3  1  0.33222517  0.66833997  0.00760345  1
  Al  Al4  1  0.41766999  0.08341383  0.37012361  1
  Al  Al5  1  0.41709522  0.06162916  0.87404082  1
  V  V6  1  0.92176709  0.60551498  0.62954985  1
  V  V7  1  0.91233313  0.58968269  0.13161125  1
  C  C8  1  0.63905890  0.97403587  0.65107066  1
  C  C9  1  0.11994652  0.47238547  0.91846494  1
  C  C10  1  0.74167268  0.40804538  0.52787914  1
  C  C11  1  0.21903468  0.86938954  0.77658504  1
  N  N12  1  0.64589707  0.97575509  0.15511393  1
  N  N13  1  0.14211907  0.47543485  0.38724384  1
  N  N14  1  0.72889258  0.39760205  0.03822818  1
  N  N15  1  0.22570171  0.89444743  0.27433716  1
