# generated using pymatgen
data_TiCoCN
_symmetry_space_group_name_H-M   'P 1'
_cell_length_a   8.21792698
_cell_length_b   4.17289456
_cell_length_c   4.17825482
_cell_angle_alpha   90.00000000
_cell_angle_beta   90.00000000
_cell_angle_gamma   90.00000000
_symmetry_Int_Tables_number   1
_chemical_formula_structural   TiCoCN
_chemical_formula_sum   'Ti4 Co4 C4 N4'
_cell_volume   143.28298220
_cell_formula_units_Z   4
loop_
 _symmetry_equiv_pos_site_id
 _symmetry_equiv_pos_as_xyz
  1  'x, y, z'
loop_
 _atom_site_type_symbol
 _atom_site_label
 _atom_site_symmetry_multiplicity
 _atom_site_fract_x
 _atom_site_fract_y
 _atom_site_fract_z
 _atom_site_occupancy
  Ti  Ti0  1  0.97555436  0.00000000  0.00000000  1
  Ti  Ti1  1  0.24829649  0.00000000  0.50000000  1
  Ti  Ti2  1  0.25216811  0.50000000  0.00000000  1
  Ti  Ti3  1  0.51742117  0.50000000  0.50000000  1
  Co  Co4  1  0.00872258  0.50000000  0.50000000  1
  Co  Co5  1  0.49023095  0.00000000  0.00000000  1
  Co  Co6  1  0.75258147  0.00000000  0.50000000  1
  Co  Co7  1  0.74758381  0.50000000  0.00000000  1
  C  C8  1  0.98890695  0.00000000  0.50000000  1
  C  C9  1  0.25955215  0.50000000  0.50000000  1
  C  C10  1  0.51408092  0.00000000  0.50000000  1
  C  C11  1  0.77700667  0.50000000  0.50000000  1
  N  N12  1  0.99067683  0.50000000  0.00000000  1
  N  N13  1  0.24072715  0.00000000  0.00000000  1
  N  N14  1  0.51032301  0.50000000  0.00000000  1
  N  N15  1  0.72616738  0.00000000  0.00000000  1
