# generated using pymatgen
data_Al3W(CN)2
_symmetry_space_group_name_H-M   'P 1'
_cell_length_a   6.07973192
_cell_length_b   6.11590761
_cell_length_c   6.51196653
_cell_angle_alpha   105.53182559
_cell_angle_beta   105.62896381
_cell_angle_gamma   55.39830406
_symmetry_Int_Tables_number   1
_chemical_formula_structural   Al3W(CN)2
_chemical_formula_sum   'Al6 W2 C4 N4'
_cell_volume   189.91396468
_cell_formula_units_Z   2
loop_
 _symmetry_equiv_pos_site_id
 _symmetry_equiv_pos_as_xyz
  1  'x, y, z'
loop_
 _atom_site_type_symbol
 _atom_site_label
 _atom_site_symmetry_multiplicity
 _atom_site_fract_x
 _atom_site_fract_y
 _atom_site_fract_z
 _atom_site_occupancy
  Al  Al0  1  0.83875338  0.17007041  0.74802845  1
  Al  Al1  1  0.84423388  0.15945431  0.25226430  1
  Al  Al2  1  0.35288284  0.68170848  0.50330121  1
  Al  Al3  1  0.32330755  0.67434509  0.00380886  1
  Al  Al4  1  0.42542365  0.07216527  0.37032590  1
  Al  Al5  1  0.40584032  0.07206618  0.87172128  1
  W  W6  1  0.92610605  0.60281309  0.61993521  1
  W  W7  1  0.90168077  0.58781374  0.14120629  1
  C  C8  1  0.63313383  0.98504363  0.65567029  1
  C  C9  1  0.11871712  0.48198563  0.91897408  1
  C  C10  1  0.74750542  0.39923752  0.52740206  1
  C  C11  1  0.21810027  0.87780829  0.77672673  1
  N  N12  1  0.64083253  0.98524682  0.15372377  1
  N  N13  1  0.17730241  0.46244672  0.39728602  1
  N  N14  1  0.72167169  0.39170407  0.03537067  1
  N  N15  1  0.22450827  0.89609075  0.27425489  1
