# generated using pymatgen
data_TiReCN
_symmetry_space_group_name_H-M   'P 1'
_cell_length_a   8.85732488
_cell_length_b   4.26469152
_cell_length_c   4.23097936
_cell_angle_alpha   90.00000000
_cell_angle_beta   90.00000000
_cell_angle_gamma   90.00000000
_symmetry_Int_Tables_number   1
_chemical_formula_structural   TiReCN
_chemical_formula_sum   'Ti4 Re4 C4 N4'
_cell_volume   159.81999174
_cell_formula_units_Z   4
loop_
 _symmetry_equiv_pos_site_id
 _symmetry_equiv_pos_as_xyz
  1  'x, y, z'
loop_
 _atom_site_type_symbol
 _atom_site_label
 _atom_site_symmetry_multiplicity
 _atom_site_fract_x
 _atom_site_fract_y
 _atom_site_fract_z
 _atom_site_occupancy
  Re  Re0  1  0.02730062  0.00000000  0.00000000  1
  Re  Re1  1  0.23663100  0.50000000  0.00000000  1
  Re  Re2  1  0.73500657  0.00000000  0.50000000  1
  Re  Re3  1  0.73080919  0.50000000  0.00000000  1
  Ti  Ti4  1  0.00007856  0.50000000  0.50000000  1
  Ti  Ti5  1  0.25298792  0.00000000  0.50000000  1
  Ti  Ti6  1  0.50794691  0.00000000  0.00000000  1
  Ti  Ti7  1  0.49918042  0.50000000  0.50000000  1
  C  C8  1  0.00095462  0.00000000  0.50000000  1
  C  C9  1  0.24827160  0.50000000  0.50000000  1
  C  C10  1  0.49593157  0.00000000  0.50000000  1
  C  C11  1  0.74883656  0.50000000  0.50000000  1
  N  N12  1  0.97399237  0.50000000  0.00000000  1
  N  N13  1  0.27344534  0.00000000  0.00000000  1
  N  N14  1  0.48209886  0.50000000  0.00000000  1
  N  N15  1  0.78652791  0.00000000  0.00000000  1
