# generated using pymatgen
data_TaTiCN
_symmetry_space_group_name_H-M   'P 1'
_cell_length_a   8.75782448
_cell_length_b   4.36959297
_cell_length_c   4.38078767
_cell_angle_alpha   90.00000000
_cell_angle_beta   90.00000000
_cell_angle_gamma   90.00000000
_symmetry_Int_Tables_number   1
_chemical_formula_structural   TaTiCN
_chemical_formula_sum   'Ta4 Ti4 C4 N4'
_cell_volume   167.64454452
_cell_formula_units_Z   4
loop_
 _symmetry_equiv_pos_site_id
 _symmetry_equiv_pos_as_xyz
  1  'x, y, z'
loop_
 _atom_site_type_symbol
 _atom_site_label
 _atom_site_symmetry_multiplicity
 _atom_site_fract_x
 _atom_site_fract_y
 _atom_site_fract_z
 _atom_site_occupancy
  Ti  Ti0  1  0.99275823  0.00000000  0.00000000  1
  Ti  Ti1  1  0.24788894  0.00000000  0.50000000  1
  Ti  Ti2  1  0.75113439  0.00000000  0.50000000  1
  Ti  Ti3  1  0.75490816  0.50000000  0.00000000  1
  Ta  Ta4  1  0.99865772  0.50000000  0.50000000  1
  Ta  Ta5  1  0.24630051  0.50000000  0.00000000  1
  Ta  Ta6  1  0.50586672  0.00000000  0.00000000  1
  Ta  Ta7  1  0.50201242  0.50000000  0.50000000  1
  C  C8  1  0.00010590  0.00000000  0.50000000  1
  C  C9  1  0.25028222  0.50000000  0.50000000  1
  C  C10  1  0.49972269  0.00000000  0.50000000  1
  C  C11  1  0.74986209  0.50000000  0.50000000  1
  N  N12  1  0.99717884  0.50000000  0.00000000  1
  N  N13  1  0.24655746  0.00000000  0.00000000  1
  N  N14  1  0.50434462  0.50000000  0.00000000  1
  N  N15  1  0.75241906  0.00000000  0.00000000  1
