# generated using pymatgen
data_HfTiCN
_symmetry_space_group_name_H-M   'P 1'
_cell_length_a   8.91165450
_cell_length_b   4.46955842
_cell_length_c   4.45852419
_cell_angle_alpha   90.00000000
_cell_angle_beta   90.00000000
_cell_angle_gamma   90.00000000
_symmetry_Int_Tables_number   1
_chemical_formula_structural   HfTiCN
_chemical_formula_sum   'Hf4 Ti4 C4 N4'
_cell_volume   177.58819219
_cell_formula_units_Z   4
loop_
 _symmetry_equiv_pos_site_id
 _symmetry_equiv_pos_as_xyz
  1  'x, y, z'
loop_
 _atom_site_type_symbol
 _atom_site_label
 _atom_site_symmetry_multiplicity
 _atom_site_fract_x
 _atom_site_fract_y
 _atom_site_fract_z
 _atom_site_occupancy
  Hf  Hf0  1  0.99478386  0.00000000  0.00000000  1
  Hf  Hf1  1  0.24663246  0.00000000  0.50000000  1
  Hf  Hf2  1  0.50616542  0.00000000  0.00000000  1
  Hf  Hf3  1  0.50390720  0.50000000  0.50000000  1
  Ti  Ti4  1  0.99608104  0.50000000  0.50000000  1
  Ti  Ti5  1  0.23783183  0.50000000  0.00000000  1
  Ti  Ti6  1  0.75386767  0.00000000  0.50000000  1
  Ti  Ti7  1  0.76016706  0.50000000  0.00000000  1
  C  C8  1  0.99377486  0.00000000  0.50000000  1
  C  C9  1  0.24504224  0.50000000  0.50000000  1
  C  C10  1  0.50458395  0.00000000  0.50000000  1
  C  C11  1  0.75630731  0.50000000  0.50000000  1
  N  N12  1  0.99780137  0.50000000  0.00000000  1
  N  N13  1  0.24863219  0.00000000  0.00000000  1
  N  N14  1  0.50299788  0.50000000  0.00000000  1
  N  N15  1  0.75142367  0.00000000  0.00000000  1
