# generated using pymatgen
data_TiOsCN
_symmetry_space_group_name_H-M   'P 1'
_cell_length_a   8.87011090
_cell_length_b   4.25102798
_cell_length_c   4.25079544
_cell_angle_alpha   90.00000000
_cell_angle_beta   90.00000000
_cell_angle_gamma   90.00000000
_symmetry_Int_Tables_number   1
_chemical_formula_structural   TiOsCN
_chemical_formula_sum   'Ti4 Os4 C4 N4'
_cell_volume   160.28512462
_cell_formula_units_Z   4
loop_
 _symmetry_equiv_pos_site_id
 _symmetry_equiv_pos_as_xyz
  1  'x, y, z'
loop_
 _atom_site_type_symbol
 _atom_site_label
 _atom_site_symmetry_multiplicity
 _atom_site_fract_x
 _atom_site_fract_y
 _atom_site_fract_z
 _atom_site_occupancy
  Ti  Ti0  1  0.00530672  0.00000000  0.00000000  1
  Ti  Ti1  1  0.00763203  0.50000000  0.50000000  1
  Ti  Ti2  1  0.25531745  0.00000000  0.50000000  1
  Ti  Ti3  1  0.50712981  0.00000000  0.00000000  1
  Os  Os4  1  0.21879130  0.50000000  0.00000000  1
  Os  Os5  1  0.49723896  0.50000000  0.50000000  1
  Os  Os6  1  0.78935699  0.00000000  0.50000000  1
  Os  Os7  1  0.71187285  0.50000000  0.00000000  1
  C  C8  1  0.02049538  0.00000000  0.50000000  1
  C  C9  1  0.26079740  0.50000000  0.50000000  1
  C  C10  1  0.51620709  0.00000000  0.50000000  1
  C  C11  1  0.75193223  0.50000000  0.50000000  1
  N  N12  1  0.97429372  0.50000000  0.00000000  1
  N  N13  1  0.26574561  0.00000000  0.00000000  1
  N  N14  1  0.46686874  0.50000000  0.00000000  1
  N  N15  1  0.75101375  0.00000000  0.00000000  1
