# generated using pymatgen
data_TiVCN
_symmetry_space_group_name_H-M   'P 1'
_cell_length_a   8.42246331
_cell_length_b   4.21091993
_cell_length_c   4.21970848
_cell_angle_alpha   90.00000000
_cell_angle_beta   90.00000000
_cell_angle_gamma   90.00000000
_symmetry_Int_Tables_number   1
_chemical_formula_structural   TiVCN
_chemical_formula_sum   'Ti4 V4 C4 N4'
_cell_volume   149.65752540
_cell_formula_units_Z   4
loop_
 _symmetry_equiv_pos_site_id
 _symmetry_equiv_pos_as_xyz
  1  'x, y, z'
loop_
 _atom_site_type_symbol
 _atom_site_label
 _atom_site_symmetry_multiplicity
 _atom_site_fract_x
 _atom_site_fract_y
 _atom_site_fract_z
 _atom_site_occupancy
  V  V0  1  0.98764282  0.00000000  0.00000000  1
  V  V1  1  0.50410206  0.50000000  0.50000000  1
  V  V2  1  0.74987488  0.00000000  0.50000000  1
  V  V3  1  0.75012101  0.50000000  0.00000000  1
  Ti  Ti4  1  0.99628379  0.50000000  0.50000000  1
  Ti  Ti5  1  0.25098058  0.00000000  0.50000000  1
  Ti  Ti6  1  0.25042299  0.50000000  0.00000000  1
  Ti  Ti7  1  0.50830752  0.00000000  0.00000000  1
  C  C8  1  0.99640686  0.00000000  0.50000000  1
  C  C9  1  0.25104300  0.50000000  0.50000000  1
  C  C10  1  0.50352490  0.00000000  0.50000000  1
  C  C11  1  0.74873198  0.50000000  0.50000000  1
  N  N12  1  0.99795599  0.50000000  0.00000000  1
  N  N13  1  0.25170217  0.00000000  0.00000000  1
  N  N14  1  0.50257111  0.50000000  0.00000000  1
  N  N15  1  0.75032833  0.00000000  0.00000000  1
