# generated using pymatgen
data_YTiCN
_symmetry_space_group_name_H-M   'P 1'
_cell_length_a   9.28199188
_cell_length_b   4.62805498
_cell_length_c   4.68942840
_cell_angle_alpha   90.00000000
_cell_angle_beta   90.00000000
_cell_angle_gamma   90.00000000
_symmetry_Int_Tables_number   1
_chemical_formula_structural   YTiCN
_chemical_formula_sum   'Y4 Ti4 C4 N4'
_cell_volume   201.44644287
_cell_formula_units_Z   4
loop_
 _symmetry_equiv_pos_site_id
 _symmetry_equiv_pos_as_xyz
  1  'x, y, z'
loop_
 _atom_site_type_symbol
 _atom_site_label
 _atom_site_symmetry_multiplicity
 _atom_site_fract_x
 _atom_site_fract_y
 _atom_site_fract_z
 _atom_site_occupancy
  Y  Y0  1  0.00562537  0.00000000  0.00000000  1
  Y  Y1  1  0.00592611  0.50000000  0.50000000  1
  Y  Y2  1  0.49985757  0.00000000  0.00000000  1
  Y  Y3  1  0.74337088  0.50000000  0.00000000  1
  Ti  Ti4  1  0.26984341  0.00000000  0.50000000  1
  Ti  Ti5  1  0.25549102  0.50000000  0.00000000  1
  Ti  Ti6  1  0.49523542  0.50000000  0.50000000  1
  Ti  Ti7  1  0.74833820  0.00000000  0.50000000  1
  C  C8  1  0.97311255  0.00000000  0.50000000  1
  C  C9  1  0.26622979  0.50000000  0.50000000  1
  C  C10  1  0.48807570  0.00000000  0.50000000  1
  C  C11  1  0.72768841  0.50000000  0.50000000  1
  N  N12  1  0.03362374  0.50000000  0.00000000  1
  N  N13  1  0.25462239  0.00000000  0.00000000  1
  N  N14  1  0.48420672  0.50000000  0.00000000  1
  N  N15  1  0.74875271  0.00000000  0.00000000  1
