# generated using pymatgen
data_Ti3Al(CN)2
_symmetry_space_group_name_H-M   'P 1'
_cell_length_a   8.55603578
_cell_length_b   4.26423660
_cell_length_c   4.25330985
_cell_angle_alpha   90.00000000
_cell_angle_beta   90.00000000
_cell_angle_gamma   90.00000000
_symmetry_Int_Tables_number   1
_chemical_formula_structural   Ti3Al(CN)2
_chemical_formula_sum   'Ti6 Al2 C4 N4'
_cell_volume   155.18184367
_cell_formula_units_Z   2
loop_
 _symmetry_equiv_pos_site_id
 _symmetry_equiv_pos_as_xyz
  1  'x, y, z'
loop_
 _atom_site_type_symbol
 _atom_site_label
 _atom_site_symmetry_multiplicity
 _atom_site_fract_x
 _atom_site_fract_y
 _atom_site_fract_z
 _atom_site_occupancy
  Al  Al0  1  0.99705594  0.00000000  0.00000000  1
  Al  Al1  1  0.75419069  0.00000000  0.50000000  1
  Ti  Ti2  1  0.99749539  0.50000000  0.50000000  1
  Ti  Ti3  1  0.24665191  0.00000000  0.50000000  1
  Ti  Ti4  1  0.25143680  0.50000000  0.00000000  1
  Ti  Ti5  1  0.50283679  0.00000000  0.00000000  1
  Ti  Ti6  1  0.50189487  0.50000000  0.50000000  1
  Ti  Ti7  1  0.74738532  0.50000000  0.00000000  1
  C  C8  1  0.99928236  0.00000000  0.50000000  1
  C  C9  1  0.24929297  0.50000000  0.50000000  1
  C  C10  1  0.50090456  0.00000000  0.50000000  1
  C  C11  1  0.74996719  0.50000000  0.50000000  1
  N  N12  1  0.00030862  0.50000000  0.00000000  1
  N  N13  1  0.24577497  0.00000000  0.00000000  1
  N  N14  1  0.50018292  0.50000000  0.00000000  1
  N  N15  1  0.75533871  0.00000000  0.00000000  1
