# generated using pymatgen
data_Ti3Nb(CN)2
_symmetry_space_group_name_H-M   'P 1'
_cell_length_a   8.64564644
_cell_length_b   4.33124808
_cell_length_c   4.34315384
_cell_angle_alpha   90.00000000
_cell_angle_beta   90.00000000
_cell_angle_gamma   90.00000000
_symmetry_Int_Tables_number   1
_chemical_formula_structural   Ti3Nb(CN)2
_chemical_formula_sum   'Ti6 Nb2 C4 N4'
_cell_volume   162.63564770
_cell_formula_units_Z   2
loop_
 _symmetry_equiv_pos_site_id
 _symmetry_equiv_pos_as_xyz
  1  'x, y, z'
loop_
 _atom_site_type_symbol
 _atom_site_label
 _atom_site_symmetry_multiplicity
 _atom_site_fract_x
 _atom_site_fract_y
 _atom_site_fract_z
 _atom_site_occupancy
  Nb  Nb0  1  0.99815801  0.00000000  0.00000000  1
  Nb  Nb1  1  0.25184199  0.50000000  0.00000000  1
  Ti  Ti2  1  0.99812611  0.50000000  0.50000000  1
  Ti  Ti3  1  0.25187389  0.00000000  0.50000000  1
  Ti  Ti4  1  0.50331357  0.00000000  0.00000000  1
  Ti  Ti5  1  0.50136911  0.50000000  0.50000000  1
  Ti  Ti6  1  0.74863089  0.00000000  0.50000000  1
  Ti  Ti7  1  0.74668643  0.50000000  0.00000000  1
  C  C8  1  0.00009333  0.00000000  0.50000000  1
  C  C9  1  0.24990667  0.50000000  0.50000000  1
  C  C10  1  0.50012928  0.00000000  0.50000000  1
  C  C11  1  0.74987072  0.50000000  0.50000000  1
  N  N12  1  0.99454467  0.50000000  0.00000000  1
  N  N13  1  0.25545533  0.00000000  0.00000000  1
  N  N14  1  0.50404117  0.50000000  0.00000000  1
  N  N15  1  0.74595883  0.00000000  0.00000000  1
