# generated using pymatgen
data_Ti3Mn(CN)2
_symmetry_space_group_name_H-M   'P 1'
_cell_length_a   8.38811248
_cell_length_b   4.19564375
_cell_length_c   4.29298593
_cell_angle_alpha   90.00000000
_cell_angle_beta   90.00000000
_cell_angle_gamma   90.00000000
_symmetry_Int_Tables_number   1
_chemical_formula_structural   Ti3Mn(CN)2
_chemical_formula_sum   'Ti6 Mn2 C4 N4'
_cell_volume   151.08533642
_cell_formula_units_Z   2
loop_
 _symmetry_equiv_pos_site_id
 _symmetry_equiv_pos_as_xyz
  1  'x, y, z'
loop_
 _atom_site_type_symbol
 _atom_site_label
 _atom_site_symmetry_multiplicity
 _atom_site_fract_x
 _atom_site_fract_y
 _atom_site_fract_z
 _atom_site_occupancy
  Ti  Ti0  1  0.00744628  0.00000000  0.00000000  1
  Ti  Ti1  1  0.00633912  0.50000000  0.50000000  1
  Ti  Ti2  1  0.25715604  0.50000000  0.00000000  1
  Ti  Ti3  1  0.49284396  0.00000000  0.00000000  1
  Ti  Ti4  1  0.74366088  0.00000000  0.50000000  1
  Ti  Ti5  1  0.74255372  0.50000000  0.00000000  1
  Mn  Mn6  1  0.26112559  0.00000000  0.50000000  1
  Mn  Mn7  1  0.48887441  0.50000000  0.50000000  1
  C  C8  1  0.00269089  0.00000000  0.50000000  1
  C  C9  1  0.25643939  0.50000000  0.50000000  1
  C  C10  1  0.49356061  0.00000000  0.50000000  1
  C  C11  1  0.74730911  0.50000000  0.50000000  1
  N  N12  1  0.00286309  0.50000000  0.00000000  1
  N  N13  1  0.25129873  0.00000000  0.00000000  1
  N  N14  1  0.49870127  0.50000000  0.00000000  1
  N  N15  1  0.74713691  0.00000000  0.00000000  1
