# generated using pymatgen
data_Ti3Fe(CN)2
_symmetry_space_group_name_H-M   'P 1'
_cell_length_a   8.36504350
_cell_length_b   4.20400910
_cell_length_c   4.28382238
_cell_angle_alpha   90.00000000
_cell_angle_beta   90.00000000
_cell_angle_gamma   90.00000000
_symmetry_Int_Tables_number   1
_chemical_formula_structural   Ti3Fe(CN)2
_chemical_formula_sum   'Ti6 Fe2 C4 N4'
_cell_volume   150.64797787
_cell_formula_units_Z   2
loop_
 _symmetry_equiv_pos_site_id
 _symmetry_equiv_pos_as_xyz
  1  'x, y, z'
loop_
 _atom_site_type_symbol
 _atom_site_label
 _atom_site_symmetry_multiplicity
 _atom_site_fract_x
 _atom_site_fract_y
 _atom_site_fract_z
 _atom_site_occupancy
  Ti  Ti0  1  0.99128070  0.00000000  0.00000000  1
  Ti  Ti1  1  0.24329180  0.00000000  0.50000000  1
  Ti  Ti2  1  0.24158433  0.50000000  0.00000000  1
  Ti  Ti3  1  0.50841567  0.00000000  0.00000000  1
  Ti  Ti4  1  0.50670820  0.50000000  0.50000000  1
  Ti  Ti5  1  0.75871930  0.50000000  0.00000000  1
  Fe  Fe6  1  0.99972043  0.50000000  0.50000000  1
  Fe  Fe7  1  0.75027957  0.00000000  0.50000000  1
  C  C8  1  0.98905269  0.00000000  0.50000000  1
  C  C9  1  0.24807450  0.50000000  0.50000000  1
  C  C10  1  0.50192550  0.00000000  0.50000000  1
  C  C11  1  0.76094731  0.50000000  0.50000000  1
  N  N12  1  0.99906690  0.50000000  0.00000000  1
  N  N13  1  0.24657104  0.00000000  0.00000000  1
  N  N14  1  0.50342896  0.50000000  0.00000000  1
  N  N15  1  0.75093310  0.00000000  0.00000000  1
