# generated using pymatgen
data_HfTi3(CN)2
_symmetry_space_group_name_H-M   'P 1'
_cell_length_a   8.72492734
_cell_length_b   4.36665462
_cell_length_c   4.40667855
_cell_angle_alpha   90.00000000
_cell_angle_beta   90.00000000
_cell_angle_gamma   90.00000000
_symmetry_Int_Tables_number   1
_chemical_formula_structural   HfTi3(CN)2
_chemical_formula_sum   'Hf2 Ti6 C4 N4'
_cell_volume   167.88891919
_cell_formula_units_Z   2
loop_
 _symmetry_equiv_pos_site_id
 _symmetry_equiv_pos_as_xyz
  1  'x, y, z'
loop_
 _atom_site_type_symbol
 _atom_site_label
 _atom_site_symmetry_multiplicity
 _atom_site_fract_x
 _atom_site_fract_y
 _atom_site_fract_z
 _atom_site_occupancy
  Hf  Hf0  1  0.99344953  0.00000000  0.00000000  1
  Hf  Hf1  1  0.25655047  0.50000000  0.00000000  1
  Ti  Ti2  1  0.99647445  0.50000000  0.50000000  1
  Ti  Ti3  1  0.25352555  0.00000000  0.50000000  1
  Ti  Ti4  1  0.50715781  0.00000000  0.00000000  1
  Ti  Ti5  1  0.50405398  0.50000000  0.50000000  1
  Ti  Ti6  1  0.74594602  0.00000000  0.50000000  1
  Ti  Ti7  1  0.74284219  0.50000000  0.00000000  1
  C  C8  1  0.99864013  0.00000000  0.50000000  1
  C  C9  1  0.25135987  0.50000000  0.50000000  1
  C  C10  1  0.50157043  0.00000000  0.50000000  1
  C  C11  1  0.74842957  0.50000000  0.50000000  1
  N  N12  1  0.99706263  0.50000000  0.00000000  1
  N  N13  1  0.25293737  0.00000000  0.00000000  1
  N  N14  1  0.50519816  0.50000000  0.00000000  1
  N  N15  1  0.74480184  0.00000000  0.00000000  1
