# generated using pymatgen
data_ZrTi3(CN)2
_symmetry_space_group_name_H-M   'P 1'
_cell_length_a   8.78875992
_cell_length_b   4.40220062
_cell_length_c   4.39855301
_cell_angle_alpha   90.00000000
_cell_angle_beta   90.00000000
_cell_angle_gamma   90.00000000
_symmetry_Int_Tables_number   1
_chemical_formula_structural   ZrTi3(CN)2
_chemical_formula_sum   'Zr2 Ti6 C4 N4'
_cell_volume   170.17950735
_cell_formula_units_Z   2
loop_
 _symmetry_equiv_pos_site_id
 _symmetry_equiv_pos_as_xyz
  1  'x, y, z'
loop_
 _atom_site_type_symbol
 _atom_site_label
 _atom_site_symmetry_multiplicity
 _atom_site_fract_x
 _atom_site_fract_y
 _atom_site_fract_z
 _atom_site_occupancy
  Ti  Ti0  1  0.01172374  0.00000000  0.00000000  1
  Ti  Ti1  1  0.25509326  0.00000000  0.50000000  1
  Ti  Ti2  1  0.25646840  0.50000000  0.00000000  1
  Ti  Ti3  1  0.49027227  0.00000000  0.00000000  1
  Ti  Ti4  1  0.49630450  0.50000000  0.50000000  1
  Ti  Ti5  1  0.74435029  0.00000000  0.50000000  1
  Zr  Zr6  1  0.00367887  0.50000000  0.50000000  1
  Zr  Zr7  1  0.74328952  0.50000000  0.00000000  1
  C  C8  1  0.00205975  0.00000000  0.50000000  1
  C  C9  1  0.25817005  0.50000000  0.50000000  1
  C  C10  1  0.49821585  0.00000000  0.50000000  1
  C  C11  1  0.74248214  0.50000000  0.50000000  1
  N  N12  1  0.00627950  0.50000000  0.00000000  1
  N  N13  1  0.25204086  0.00000000  0.00000000  1
  N  N14  1  0.49237595  0.50000000  0.00000000  1
  N  N15  1  0.74719503  0.00000000  0.00000000  1
