# generated using pymatgen
data_Ti3Si(CN)2
_symmetry_space_group_name_H-M   'P 1'
_cell_length_a   8.42024257
_cell_length_b   4.27153843
_cell_length_c   4.23461915
_cell_angle_alpha   90.00000000
_cell_angle_beta   90.00000000
_cell_angle_gamma   90.00000000
_symmetry_Int_Tables_number   1
_chemical_formula_structural   Ti3Si(CN)2
_chemical_formula_sum   'Ti6 Si2 C4 N4'
_cell_volume   152.30819732
_cell_formula_units_Z   2
loop_
 _symmetry_equiv_pos_site_id
 _symmetry_equiv_pos_as_xyz
  1  'x, y, z'
loop_
 _atom_site_type_symbol
 _atom_site_label
 _atom_site_symmetry_multiplicity
 _atom_site_fract_x
 _atom_site_fract_y
 _atom_site_fract_z
 _atom_site_occupancy
  Si  Si0  1  0.00063897  0.00000000  0.00000000  1
  Si  Si1  1  0.75098133  0.00000000  0.50000000  1
  Ti  Ti2  1  0.00094357  0.50000000  0.50000000  1
  Ti  Ti3  1  0.25400414  0.00000000  0.50000000  1
  Ti  Ti4  1  0.25421809  0.50000000  0.00000000  1
  Ti  Ti5  1  0.49124111  0.00000000  0.00000000  1
  Ti  Ti6  1  0.50155898  0.50000000  0.50000000  1
  Ti  Ti7  1  0.74539869  0.50000000  0.00000000  1
  C  C8  1  0.98379213  0.00000000  0.50000000  1
  C  C9  1  0.24901021  0.50000000  0.50000000  1
  C  C10  1  0.51837966  0.00000000  0.50000000  1
  C  C11  1  0.75091850  0.50000000  0.50000000  1
  N  N12  1  0.99962666  0.50000000  0.00000000  1
  N  N13  1  0.22532594  0.00000000  0.00000000  1
  N  N14  1  0.50091705  0.50000000  0.00000000  1
  N  N15  1  0.77304494  0.00000000  0.00000000  1
