# generated using pymatgen
data_YTi3(CN)2
_symmetry_space_group_name_H-M   'P 1'
_cell_length_a   8.88945014
_cell_length_b   4.50100625
_cell_length_c   4.49439746
_cell_angle_alpha   90.00000000
_cell_angle_beta   90.00000000
_cell_angle_gamma   90.00000000
_symmetry_Int_Tables_number   1
_chemical_formula_structural   YTi3(CN)2
_chemical_formula_sum   'Y2 Ti6 C4 N4'
_cell_volume   179.82745201
_cell_formula_units_Z   2
loop_
 _symmetry_equiv_pos_site_id
 _symmetry_equiv_pos_as_xyz
  1  'x, y, z'
loop_
 _atom_site_type_symbol
 _atom_site_label
 _atom_site_symmetry_multiplicity
 _atom_site_fract_x
 _atom_site_fract_y
 _atom_site_fract_z
 _atom_site_occupancy
  Ti  Ti0  1  0.00000000  0.00000000  0.00000000  1
  Ti  Ti1  1  0.00000000  0.50000000  0.50000000  1
  Ti  Ti2  1  0.23753220  0.00000000  0.50000000  1
  Ti  Ti3  1  0.23498100  0.50000000  0.00000000  1
  Ti  Ti4  1  0.76246780  0.00000000  0.50000000  1
  Ti  Ti5  1  0.76501900  0.50000000  0.00000000  1
  C  C6  1  0.00000000  0.00000000  0.50000000  1
  C  C7  1  0.23356482  0.50000000  0.50000000  1
  C  C8  1  0.50000000  0.00000000  0.50000000  1
  C  C9  1  0.76643518  0.50000000  0.50000000  1
  N  N10  1  0.00000000  0.50000000  0.00000000  1
  N  N11  1  0.23218719  0.00000000  0.00000000  1
  N  N12  1  0.50000000  0.50000000  0.00000000  1
  N  N13  1  0.76781281  0.00000000  0.00000000  1
  Y  Y14  1  0.50000000  0.00000000  0.00000000  1
  Y  Y15  1  0.50000000  0.50000000  0.50000000  1
