# generated using pymatgen
data_Ti3V(CN)2
_symmetry_space_group_name_H-M   'P 1'
_cell_length_a   8.50463050
_cell_length_b   4.25061609
_cell_length_c   4.25565977
_cell_angle_alpha   90.00000000
_cell_angle_beta   90.00000000
_cell_angle_gamma   90.00000000
_symmetry_Int_Tables_number   1
_chemical_formula_structural   Ti3V(CN)2
_chemical_formula_sum   'Ti6 V2 C4 N4'
_cell_volume   153.84175701
_cell_formula_units_Z   2
loop_
 _symmetry_equiv_pos_site_id
 _symmetry_equiv_pos_as_xyz
  1  'x, y, z'
loop_
 _atom_site_type_symbol
 _atom_site_label
 _atom_site_symmetry_multiplicity
 _atom_site_fract_x
 _atom_site_fract_y
 _atom_site_fract_z
 _atom_site_occupancy
  V  V0  1  0.98951285  0.00000000  0.00000000  1
  V  V1  1  0.75226936  0.00000000  0.50000000  1
  Ti  Ti2  1  0.99843711  0.50000000  0.50000000  1
  Ti  Ti3  1  0.24903065  0.00000000  0.50000000  1
  Ti  Ti4  1  0.24501420  0.50000000  0.00000000  1
  Ti  Ti5  1  0.50703023  0.00000000  0.00000000  1
  Ti  Ti6  1  0.50201341  0.50000000  0.50000000  1
  Ti  Ti7  1  0.75519321  0.50000000  0.00000000  1
  C  C8  1  0.99762869  0.00000000  0.50000000  1
  C  C9  1  0.24882015  0.50000000  0.50000000  1
  C  C10  1  0.50208788  0.00000000  0.50000000  1
  C  C11  1  0.75122311  0.50000000  0.50000000  1
  N  N12  1  0.99965756  0.50000000  0.00000000  1
  N  N13  1  0.25050232  0.00000000  0.00000000  1
  N  N14  1  0.50152351  0.50000000  0.00000000  1
  N  N15  1  0.75005577  0.00000000  0.00000000  1
