# generated using pymatgen
data_Zr4BC3
_symmetry_space_group_name_H-M   'P 1'
_cell_length_a   9.49015527
_cell_length_b   4.75622123
_cell_length_c   4.75865104
_cell_angle_alpha   90.00000000
_cell_angle_beta   90.00000000
_cell_angle_gamma   90.00000000
_symmetry_Int_Tables_number   1
_chemical_formula_structural   Zr4BC3
_chemical_formula_sum   'Zr8 B2 C6'
_cell_volume   214.79255476
_cell_formula_units_Z   2
loop_
 _symmetry_equiv_pos_site_id
 _symmetry_equiv_pos_as_xyz
  1  'x, y, z'
loop_
 _atom_site_type_symbol
 _atom_site_label
 _atom_site_symmetry_multiplicity
 _atom_site_fract_x
 _atom_site_fract_y
 _atom_site_fract_z
 _atom_site_occupancy
  Zr  Zr0  1  0.99942779  0.00000000  0.00000000  1
  Zr  Zr1  1  0.00761271  0.50000000  0.50000000  1
  Zr  Zr2  1  0.25025294  0.00000000  0.50000000  1
  Zr  Zr3  1  0.25596656  0.50000000  0.00000000  1
  Zr  Zr4  1  0.49974706  0.00000000  0.00000000  1
  Zr  Zr5  1  0.49403344  0.50000000  0.50000000  1
  Zr  Zr6  1  0.75057221  0.00000000  0.50000000  1
  Zr  Zr7  1  0.74238729  0.50000000  0.00000000  1
  C  C8  1  0.00168568  0.00000000  0.50000000  1
  C  C9  1  0.25154907  0.00000000  0.00000000  1
  C  C10  1  0.25170133  0.50000000  0.50000000  1
  C  C11  1  0.49845093  0.00000000  0.50000000  1
  C  C12  1  0.49829867  0.50000000  0.00000000  1
  C  C13  1  0.74831432  0.00000000  0.00000000  1
  B  B14  1  0.00011028  0.50000000  0.00000000  1
  B  B15  1  0.74988972  0.50000000  0.50000000  1
