# generated using pymatgen
data_Zr4B3C
_symmetry_space_group_name_H-M   'P 1'
_cell_length_a   9.69458148
_cell_length_b   4.85533396
_cell_length_c   4.85533396
_cell_angle_alpha   90.00000000
_cell_angle_beta   90.00000000
_cell_angle_gamma   90.00000000
_symmetry_Int_Tables_number   1
_chemical_formula_structural   Zr4B3C
_chemical_formula_sum   'Zr8 B6 C2'
_cell_volume   228.54266063
_cell_formula_units_Z   2
loop_
 _symmetry_equiv_pos_site_id
 _symmetry_equiv_pos_as_xyz
  1  'x, y, z'
loop_
 _atom_site_type_symbol
 _atom_site_label
 _atom_site_symmetry_multiplicity
 _atom_site_fract_x
 _atom_site_fract_y
 _atom_site_fract_z
 _atom_site_occupancy
  Zr  Zr0  1  0.01119596  0.00000000  0.00000000  1
  Zr  Zr1  1  0.98880404  0.50000000  0.50000000  1
  Zr  Zr2  1  0.25000000  0.00000000  0.50000000  1
  Zr  Zr3  1  0.25000000  0.50000000  0.00000000  1
  Zr  Zr4  1  0.48880404  0.00000000  0.00000000  1
  Zr  Zr5  1  0.51119596  0.50000000  0.50000000  1
  Zr  Zr6  1  0.75000000  0.00000000  0.50000000  1
  Zr  Zr7  1  0.75000000  0.50000000  0.00000000  1
  B  B8  1  0.00000000  0.00000000  0.50000000  1
  B  B9  1  0.00000000  0.50000000  0.00000000  1
  B  B10  1  0.25000000  0.50000000  0.50000000  1
  B  B11  1  0.50000000  0.00000000  0.50000000  1
  B  B12  1  0.50000000  0.50000000  0.00000000  1
  B  B13  1  0.75000000  0.00000000  0.00000000  1
  C  C14  1  0.25000000  0.00000000  0.00000000  1
  C  C15  1  0.75000000  0.50000000  0.50000000  1
