# generated using pymatgen
data_Zr2BC
_symmetry_space_group_name_H-M   'P 1'
_cell_length_a   9.58388569
_cell_length_b   4.80453281
_cell_length_c   4.80453281
_cell_angle_alpha   90.00000000
_cell_angle_beta   90.00000000
_cell_angle_gamma   90.00000000
_symmetry_Int_Tables_number   1
_chemical_formula_structural   Zr2BC
_chemical_formula_sum   'Zr8 B4 C4'
_cell_volume   221.22996577
_cell_formula_units_Z   4
loop_
 _symmetry_equiv_pos_site_id
 _symmetry_equiv_pos_as_xyz
  1  'x, y, z'
loop_
 _atom_site_type_symbol
 _atom_site_label
 _atom_site_symmetry_multiplicity
 _atom_site_fract_x
 _atom_site_fract_y
 _atom_site_fract_z
 _atom_site_occupancy
  Zr  Zr0  1  0.00000000  0.00000000  0.00000000  1
  Zr  Zr1  1  0.00000000  0.50000000  0.50000000  1
  Zr  Zr2  1  0.25853830  0.00000000  0.50000000  1
  Zr  Zr3  1  0.24146170  0.50000000  0.00000000  1
  Zr  Zr4  1  0.50000000  0.00000000  0.00000000  1
  Zr  Zr5  1  0.50000000  0.50000000  0.50000000  1
  Zr  Zr6  1  0.74146170  0.00000000  0.50000000  1
  Zr  Zr7  1  0.75853830  0.50000000  0.00000000  1
  B  B8  1  0.00000000  0.00000000  0.50000000  1
  B  B9  1  0.25000000  0.00000000  0.00000000  1
  B  B10  1  0.50000000  0.50000000  0.00000000  1
  B  B11  1  0.75000000  0.00000000  0.00000000  1
  C  C12  1  0.00000000  0.50000000  0.00000000  1
  C  C13  1  0.25000000  0.50000000  0.50000000  1
  C  C14  1  0.50000000  0.00000000  0.50000000  1
  C  C15  1  0.75000000  0.50000000  0.50000000  1
