# generated using pymatgen
data_Al3Ni(CN)2
_symmetry_space_group_name_H-M   'P 1'
_cell_length_a   5.75136453
_cell_length_b   5.87650065
_cell_length_c   6.59148022
_cell_angle_alpha   105.05666747
_cell_angle_beta   104.92997659
_cell_angle_gamma   56.97751014
_symmetry_Int_Tables_number   1
_chemical_formula_structural   Al3Ni(CN)2
_chemical_formula_sum   'Al6 Ni2 C4 N4'
_cell_volume   178.51421405
_cell_formula_units_Z   2
loop_
 _symmetry_equiv_pos_site_id
 _symmetry_equiv_pos_as_xyz
  1  'x, y, z'
loop_
 _atom_site_type_symbol
 _atom_site_label
 _atom_site_symmetry_multiplicity
 _atom_site_fract_x
 _atom_site_fract_y
 _atom_site_fract_z
 _atom_site_occupancy
  Al  Al0  1  0.83758318  0.19711544  0.76516967  1
  Al  Al1  1  0.84796734  0.17137383  0.25043873  1
  Al  Al2  1  0.32600611  0.67916069  0.49153875  1
  Al  Al3  1  0.34365164  0.67200740  0.01480858  1
  Al  Al4  1  0.42385665  0.07856412  0.37128978  1
  Al  Al5  1  0.43023190  0.06561202  0.88988078  1
  Ni  Ni6  1  0.93279527  0.59375571  0.62756867  1
  Ni  Ni7  1  0.92415604  0.58974741  0.12376519  1
  C  C8  1  0.64048087  0.96833275  0.65548126  1
  C  C9  1  0.09925910  0.48183561  0.89558244  1
  C  C10  1  0.73830923  0.40149588  0.52986049  1
  C  C11  1  0.21664465  0.86890875  0.77338362  1
  N  N12  1  0.63645696  0.99224831  0.15901617  1
  N  N13  1  0.14725473  0.46157005  0.39203419  1
  N  N14  1  0.72781941  0.39056139  0.03579799  1
  N  N15  1  0.22752694  0.88771063  0.27438372  1
