# generated using pymatgen
data_TiReCN
_symmetry_space_group_name_H-M   'P 1'
_cell_length_a   8.85736870
_cell_length_b   4.26023428
_cell_length_c   4.23396498
_cell_angle_alpha   90.00000000
_cell_angle_beta   90.00000000
_cell_angle_gamma   90.00000000
_symmetry_Int_Tables_number   1
_chemical_formula_structural   TiReCN
_chemical_formula_sum   'Ti4 Re4 C4 N4'
_cell_volume   159.76640659
_cell_formula_units_Z   4
loop_
 _symmetry_equiv_pos_site_id
 _symmetry_equiv_pos_as_xyz
  1  'x, y, z'
loop_
 _atom_site_type_symbol
 _atom_site_label
 _atom_site_symmetry_multiplicity
 _atom_site_fract_x
 _atom_site_fract_y
 _atom_site_fract_z
 _atom_site_occupancy
  Re  Re0  1  0.02799822  0.00000000  0.00000000  1
  Re  Re1  1  0.23601955  0.50000000  0.00000000  1
  Re  Re2  1  0.73574707  0.00000000  0.50000000  1
  Re  Re3  1  0.73118283  0.50000000  0.00000000  1
  Ti  Ti4  1  0.00047294  0.50000000  0.50000000  1
  Ti  Ti5  1  0.25236383  0.00000000  0.50000000  1
  Ti  Ti6  1  0.50735060  0.00000000  0.00000000  1
  Ti  Ti7  1  0.49878836  0.50000000  0.50000000  1
  C  C8  1  0.00069270  0.00000000  0.50000000  1
  C  C9  1  0.24791415  0.50000000  0.50000000  1
  C  C10  1  0.49612536  0.00000000  0.50000000  1
  C  C11  1  0.74848910  0.50000000  0.50000000  1
  N  N12  1  0.97485452  0.50000000  0.00000000  1
  N  N13  1  0.27280659  0.00000000  0.00000000  1
  N  N14  1  0.48232203  0.50000000  0.00000000  1
  N  N15  1  0.78687216  0.00000000  0.00000000  1
