# generated using pymatgen
data_TiMoCN
_symmetry_space_group_name_H-M   'P 1'
_cell_length_a   8.64023727
_cell_length_b   4.31962920
_cell_length_c   4.31063035
_cell_angle_alpha   90.00000000
_cell_angle_beta   90.00000000
_cell_angle_gamma   90.00000000
_symmetry_Int_Tables_number   1
_chemical_formula_structural   TiMoCN
_chemical_formula_sum   'Ti4 Mo4 C4 N4'
_cell_volume   160.88402371
_cell_formula_units_Z   4
loop_
 _symmetry_equiv_pos_site_id
 _symmetry_equiv_pos_as_xyz
  1  'x, y, z'
loop_
 _atom_site_type_symbol
 _atom_site_label
 _atom_site_symmetry_multiplicity
 _atom_site_fract_x
 _atom_site_fract_y
 _atom_site_fract_z
 _atom_site_occupancy
  Mo  Mo0  1  0.00050438  0.00000000  0.00000000  1
  Mo  Mo1  1  0.25000000  0.50000000  0.00000000  1
  Mo  Mo2  1  0.49949562  0.00000000  0.00000000  1
  Mo  Mo3  1  0.75000000  0.00000000  0.50000000  1
  Ti  Ti4  1  0.00042763  0.50000000  0.50000000  1
  Ti  Ti5  1  0.25000000  0.00000000  0.50000000  1
  Ti  Ti6  1  0.49957237  0.50000000  0.50000000  1
  Ti  Ti7  1  0.75000000  0.50000000  0.00000000  1
  C  C8  1  0.00384960  0.00000000  0.50000000  1
  C  C9  1  0.25000000  0.50000000  0.50000000  1
  C  C10  1  0.49615040  0.00000000  0.50000000  1
  C  C11  1  0.75000000  0.50000000  0.50000000  1
  N  N12  1  0.99446454  0.50000000  0.00000000  1
  N  N13  1  0.25000000  0.00000000  0.00000000  1
  N  N14  1  0.50553546  0.50000000  0.00000000  1
  N  N15  1  0.75000000  0.00000000  0.00000000  1
