# generated using pymatgen
data_TiReCN
_symmetry_space_group_name_H-M   'P 1'
_cell_length_a   8.85552663
_cell_length_b   4.25830537
_cell_length_c   4.23909623
_cell_angle_alpha   90.00000000
_cell_angle_beta   90.00000000
_cell_angle_gamma   90.00000000
_symmetry_Int_Tables_number   1
_chemical_formula_structural   TiReCN
_chemical_formula_sum   'Ti4 Re4 C4 N4'
_cell_volume   159.85435445
_cell_formula_units_Z   4
loop_
 _symmetry_equiv_pos_site_id
 _symmetry_equiv_pos_as_xyz
  1  'x, y, z'
loop_
 _atom_site_type_symbol
 _atom_site_label
 _atom_site_symmetry_multiplicity
 _atom_site_fract_x
 _atom_site_fract_y
 _atom_site_fract_z
 _atom_site_occupancy
  Re  Re0  1  0.02789172  0.00000000  0.00000000  1
  Re  Re1  1  0.23581892  0.50000000  0.00000000  1
  Re  Re2  1  0.73579976  0.00000000  0.50000000  1
  Re  Re3  1  0.73128853  0.50000000  0.00000000  1
  Ti  Ti4  1  0.00007541  0.50000000  0.50000000  1
  Ti  Ti5  1  0.25229524  0.00000000  0.50000000  1
  Ti  Ti6  1  0.50716933  0.00000000  0.00000000  1
  Ti  Ti7  1  0.49873940  0.50000000  0.50000000  1
  C  C8  1  0.00042667  0.00000000  0.50000000  1
  C  C9  1  0.24813338  0.50000000  0.50000000  1
  C  C10  1  0.49604393  0.00000000  0.50000000  1
  C  C11  1  0.74854224  0.50000000  0.50000000  1
  N  N12  1  0.97526742  0.50000000  0.00000000  1
  N  N13  1  0.27300952  0.00000000  0.00000000  1
  N  N14  1  0.48253498  0.50000000  0.00000000  1
  N  N15  1  0.78696358  0.00000000  0.00000000  1
