# generated using pymatgen
data_Zr3SiC4
_symmetry_space_group_name_H-M   'P 1'
_cell_length_a   8.97352129
_cell_length_b   4.69368526
_cell_length_c   4.64302182
_cell_angle_alpha   90.00000000
_cell_angle_beta   90.00000000
_cell_angle_gamma   90.00000000
_symmetry_Int_Tables_number   1
_chemical_formula_structural   Zr3SiC4
_chemical_formula_sum   'Zr6 Si2 C8'
_cell_volume   195.55890027
_cell_formula_units_Z   2
loop_
 _symmetry_equiv_pos_site_id
 _symmetry_equiv_pos_as_xyz
  1  'x, y, z'
loop_
 _atom_site_type_symbol
 _atom_site_label
 _atom_site_symmetry_multiplicity
 _atom_site_fract_x
 _atom_site_fract_y
 _atom_site_fract_z
 _atom_site_occupancy
  Si  Si0  1  0.00268549  0.00000000  0.00000000  1
  Si  Si1  1  0.24731451  0.00000000  0.50000000  1
  Zr  Zr2  1  0.00629572  0.50000000  0.50000000  1
  Zr  Zr3  1  0.24370428  0.50000000  0.00000000  1
  Zr  Zr4  1  0.48732887  0.00000000  0.00000000  1
  Zr  Zr5  1  0.49678020  0.50000000  0.50000000  1
  Zr  Zr6  1  0.76267113  0.00000000  0.50000000  1
  Zr  Zr7  1  0.75321980  0.50000000  0.00000000  1
  C  C8  1  0.02330850  0.00000000  0.50000000  1
  C  C9  1  0.00099981  0.50000000  0.00000000  1
  C  C10  1  0.22669150  0.00000000  0.00000000  1
  C  C11  1  0.24900019  0.50000000  0.50000000  1
  C  C12  1  0.48159806  0.00000000  0.50000000  1
  C  C13  1  0.49649166  0.50000000  0.00000000  1
  C  C14  1  0.76840194  0.00000000  0.00000000  1
  C  C15  1  0.75350834  0.50000000  0.50000000  1
