# generated using pymatgen
data_HfZr3C4
_symmetry_space_group_name_H-M   'P 1'
_cell_length_a   9.38979878
_cell_length_b   4.69441508
_cell_length_c   4.69455040
_cell_angle_alpha   90.00000000
_cell_angle_beta   90.00000000
_cell_angle_gamma   90.00000000
_symmetry_Int_Tables_number   1
_chemical_formula_structural   HfZr3C4
_chemical_formula_sum   'Hf2 Zr6 C8'
_cell_volume   206.93396480
_cell_formula_units_Z   2
loop_
 _symmetry_equiv_pos_site_id
 _symmetry_equiv_pos_as_xyz
  1  'x, y, z'
loop_
 _atom_site_type_symbol
 _atom_site_label
 _atom_site_symmetry_multiplicity
 _atom_site_fract_x
 _atom_site_fract_y
 _atom_site_fract_z
 _atom_site_occupancy
  Zr  Zr0  1  0.99942815  0.00000000  0.00000000  1
  Zr  Zr1  1  0.24945629  0.00000000  0.50000000  1
  Zr  Zr2  1  0.24937580  0.50000000  0.00000000  1
  Zr  Zr3  1  0.50054371  0.00000000  0.00000000  1
  Zr  Zr4  1  0.50062420  0.50000000  0.50000000  1
  Zr  Zr5  1  0.75057185  0.00000000  0.50000000  1
  Hf  Hf6  1  0.99942508  0.50000000  0.50000000  1
  Hf  Hf7  1  0.75057492  0.50000000  0.00000000  1
  C  C8  1  0.99984736  0.00000000  0.50000000  1
  C  C9  1  0.99832160  0.50000000  0.00000000  1
  C  C10  1  0.24989679  0.00000000  0.00000000  1
  C  C11  1  0.24827373  0.50000000  0.50000000  1
  C  C12  1  0.50010321  0.00000000  0.50000000  1
  C  C13  1  0.50172627  0.50000000  0.00000000  1
  C  C14  1  0.75015264  0.00000000  0.00000000  1
  C  C15  1  0.75167840  0.50000000  0.50000000  1
