# generated using pymatgen
data_Zr3CrC4
_symmetry_space_group_name_H-M   'P 1'
_cell_length_a   9.17178038
_cell_length_b   4.60575602
_cell_length_c   4.57848998
_cell_angle_alpha   90.00000000
_cell_angle_beta   90.00000000
_cell_angle_gamma   90.00000000
_symmetry_Int_Tables_number   1
_chemical_formula_structural   Zr3CrC4
_chemical_formula_sum   'Zr6 Cr2 C8'
_cell_volume   193.40907301
_cell_formula_units_Z   2
loop_
 _symmetry_equiv_pos_site_id
 _symmetry_equiv_pos_as_xyz
  1  'x, y, z'
loop_
 _atom_site_type_symbol
 _atom_site_label
 _atom_site_symmetry_multiplicity
 _atom_site_fract_x
 _atom_site_fract_y
 _atom_site_fract_z
 _atom_site_occupancy
  Zr  Zr0  1  0.99638895  0.00000000  0.00000000  1
  Zr  Zr1  1  0.99417292  0.50000000  0.50000000  1
  Zr  Zr2  1  0.25582708  0.00000000  0.50000000  1
  Zr  Zr3  1  0.25361105  0.50000000  0.00000000  1
  Zr  Zr4  1  0.50478375  0.50000000  0.50000000  1
  Zr  Zr5  1  0.74521625  0.00000000  0.50000000  1
  C  C6  1  0.99338166  0.00000000  0.50000000  1
  C  C7  1  0.99773066  0.50000000  0.00000000  1
  C  C8  1  0.25226934  0.00000000  0.00000000  1
  C  C9  1  0.25661834  0.50000000  0.50000000  1
  C  C10  1  0.50315051  0.00000000  0.50000000  1
  C  C11  1  0.51996278  0.50000000  0.00000000  1
  C  C12  1  0.73003722  0.00000000  0.00000000  1
  C  C13  1  0.74684949  0.50000000  0.50000000  1
  Cr  Cr14  1  0.51731719  0.00000000  0.00000000  1
  Cr  Cr15  1  0.73268281  0.50000000  0.00000000  1
