# generated using pymatgen
data_ZrSi3C4
_symmetry_space_group_name_H-M   'P 1'
_cell_length_a   8.15393660
_cell_length_b   4.42952053
_cell_length_c   4.46670456
_cell_angle_alpha   90.00000000
_cell_angle_beta   90.00000000
_cell_angle_gamma   90.00000000
_symmetry_Int_Tables_number   1
_chemical_formula_structural   ZrSi3C4
_chemical_formula_sum   'Zr2 Si6 C8'
_cell_volume   161.32856738
_cell_formula_units_Z   2
loop_
 _symmetry_equiv_pos_site_id
 _symmetry_equiv_pos_as_xyz
  1  'x, y, z'
loop_
 _atom_site_type_symbol
 _atom_site_label
 _atom_site_symmetry_multiplicity
 _atom_site_fract_x
 _atom_site_fract_y
 _atom_site_fract_z
 _atom_site_occupancy
  Zr  Zr0  1  0.98742065  0.00000000  0.00000000  1
  Zr  Zr1  1  0.26257935  0.50000000  0.00000000  1
  Si  Si2  1  0.99876868  0.50000000  0.50000000  1
  Si  Si3  1  0.25123132  0.00000000  0.50000000  1
  Si  Si4  1  0.49777395  0.00000000  0.00000000  1
  Si  Si5  1  0.50684493  0.50000000  0.50000000  1
  Si  Si6  1  0.74315507  0.00000000  0.50000000  1
  Si  Si7  1  0.75222605  0.50000000  0.00000000  1
  C  C8  1  -0.00013266  0.00000000  0.50000000  1
  C  C9  1  0.98336813  0.50000000  0.00000000  1
  C  C10  1  0.26663187  0.00000000  0.00000000  1
  C  C11  1  0.25013266  0.50000000  0.50000000  1
  C  C12  1  0.49836870  0.00000000  0.50000000  1
  C  C13  1  0.52640024  0.50000000  0.00000000  1
  C  C14  1  0.72359976  0.00000000  0.00000000  1
  C  C15  1  0.75163130  0.50000000  0.50000000  1
