# generated using pymatgen
data_Zr3VC4
_symmetry_space_group_name_H-M   'P 1'
_cell_length_a   9.15980403
_cell_length_b   4.59799495
_cell_length_c   4.61371445
_cell_angle_alpha   90.00000000
_cell_angle_beta   90.00000000
_cell_angle_gamma   90.00000000
_symmetry_Int_Tables_number   1
_chemical_formula_structural   Zr3VC4
_chemical_formula_sum   'Zr6 V2 C8'
_cell_volume   194.31457812
_cell_formula_units_Z   2
loop_
 _symmetry_equiv_pos_site_id
 _symmetry_equiv_pos_as_xyz
  1  'x, y, z'
loop_
 _atom_site_type_symbol
 _atom_site_label
 _atom_site_symmetry_multiplicity
 _atom_site_fract_x
 _atom_site_fract_y
 _atom_site_fract_z
 _atom_site_occupancy
  Zr  Zr0  1  0.99594808  0.00000000  0.00000000  1
  Zr  Zr1  1  0.24530096  0.00000000  0.50000000  1
  Zr  Zr2  1  0.24563307  0.50000000  0.00000000  1
  Zr  Zr3  1  0.50469904  0.00000000  0.00000000  1
  Zr  Zr4  1  0.50436693  0.50000000  0.50000000  1
  Zr  Zr5  1  0.75405192  0.00000000  0.50000000  1
  V  V6  1  0.99214170  0.50000000  0.50000000  1
  V  V7  1  0.75785830  0.50000000  0.00000000  1
  C  C8  1  0.99729192  0.00000000  0.50000000  1
  C  C9  1  0.98547010  0.50000000  0.00000000  1
  C  C10  1  0.24610600  0.00000000  0.00000000  1
  C  C11  1  0.24135657  0.50000000  0.50000000  1
  C  C12  1  0.50389400  0.00000000  0.50000000  1
  C  C13  1  0.50864343  0.50000000  0.00000000  1
  C  C14  1  0.75270808  0.00000000  0.00000000  1
  C  C15  1  0.76452990  0.50000000  0.50000000  1
