# generated using pymatgen
data_Zr3AlC4
_symmetry_space_group_name_H-M   'P 1'
_cell_length_a   9.21870961
_cell_length_b   4.65771925
_cell_length_c   4.65510756
_cell_angle_alpha   90.00000000
_cell_angle_beta   90.00000000
_cell_angle_gamma   90.00000000
_symmetry_Int_Tables_number   1
_chemical_formula_structural   Zr3AlC4
_chemical_formula_sum   'Zr6 Al2 C8'
_cell_volume   199.88175886
_cell_formula_units_Z   2
loop_
 _symmetry_equiv_pos_site_id
 _symmetry_equiv_pos_as_xyz
  1  'x, y, z'
loop_
 _atom_site_type_symbol
 _atom_site_label
 _atom_site_symmetry_multiplicity
 _atom_site_fract_x
 _atom_site_fract_y
 _atom_site_fract_z
 _atom_site_occupancy
  Zr  Zr0  1  0.99378458  0.00000000  0.00000000  1
  Zr  Zr1  1  0.99668925  0.50000000  0.50000000  1
  Zr  Zr2  1  0.25621542  0.00000000  0.50000000  1
  Zr  Zr3  1  0.25331075  0.50000000  0.00000000  1
  Zr  Zr4  1  0.50454205  0.50000000  0.50000000  1
  Zr  Zr5  1  0.74545795  0.50000000  0.00000000  1
  C  C6  1  0.99710238  0.00000000  0.50000000  1
  C  C7  1  0.99575295  0.50000000  0.00000000  1
  C  C8  1  0.25289762  0.00000000  0.00000000  1
  C  C9  1  0.25424705  0.50000000  0.50000000  1
  C  C10  1  0.50756893  0.00000000  0.50000000  1
  C  C11  1  0.50166209  0.50000000  0.00000000  1
  C  C12  1  0.74243107  0.00000000  0.00000000  1
  C  C13  1  0.74833791  0.50000000  0.50000000  1
  Al  Al14  1  0.50571026  0.00000000  0.00000000  1
  Al  Al15  1  0.74428974  0.00000000  0.50000000  1
