# generated using pymatgen
data_Zr3TaC4
_symmetry_space_group_name_H-M   'P 1'
_cell_length_a   9.28917896
_cell_length_b   4.64222384
_cell_length_c   4.65000879
_cell_angle_alpha   90.00000000
_cell_angle_beta   90.00000000
_cell_angle_gamma   90.00000000
_symmetry_Int_Tables_number   1
_chemical_formula_structural   Zr3TaC4
_chemical_formula_sum   'Zr6 Ta2 C8'
_cell_volume   200.51976235
_cell_formula_units_Z   2
loop_
 _symmetry_equiv_pos_site_id
 _symmetry_equiv_pos_as_xyz
  1  'x, y, z'
loop_
 _atom_site_type_symbol
 _atom_site_label
 _atom_site_symmetry_multiplicity
 _atom_site_fract_x
 _atom_site_fract_y
 _atom_site_fract_z
 _atom_site_occupancy
  Zr  Zr0  1  0.00085176  0.00000000  0.00000000  1
  Zr  Zr1  1  0.24914824  0.00000000  0.50000000  1
  Zr  Zr2  1  0.49877013  0.00000000  0.00000000  1
  Zr  Zr3  1  0.49857513  0.50000000  0.50000000  1
  Zr  Zr4  1  0.75122987  0.00000000  0.50000000  1
  Zr  Zr5  1  0.75142487  0.50000000  0.00000000  1
  Ta  Ta6  1  0.00027054  0.50000000  0.50000000  1
  Ta  Ta7  1  0.24972946  0.50000000  0.00000000  1
  C  C8  1  0.00143794  0.00000000  0.50000000  1
  C  C9  1  0.00606315  0.50000000  0.00000000  1
  C  C10  1  0.24856206  0.00000000  0.00000000  1
  C  C11  1  0.24393685  0.50000000  0.50000000  1
  C  C12  1  0.49860075  0.00000000  0.50000000  1
  C  C13  1  0.49219559  0.50000000  0.00000000  1
  C  C14  1  0.75139925  0.00000000  0.00000000  1
  C  C15  1  0.75780441  0.50000000  0.50000000  1
