# generated using pymatgen
data_Zr3TiC4
_symmetry_space_group_name_H-M   'P 1'
_cell_length_a   9.24519144
_cell_length_b   4.63897560
_cell_length_c   4.63505661
_cell_angle_alpha   90.00000000
_cell_angle_beta   90.00000000
_cell_angle_gamma   90.00000000
_symmetry_Int_Tables_number   1
_chemical_formula_structural   Zr3TiC4
_chemical_formula_sum   'Zr6 Ti2 C8'
_cell_volume   198.78931605
_cell_formula_units_Z   2
loop_
 _symmetry_equiv_pos_site_id
 _symmetry_equiv_pos_as_xyz
  1  'x, y, z'
loop_
 _atom_site_type_symbol
 _atom_site_label
 _atom_site_symmetry_multiplicity
 _atom_site_fract_x
 _atom_site_fract_y
 _atom_site_fract_z
 _atom_site_occupancy
  Zr  Zr0  1  0.99609316  0.00000000  0.00000000  1
  Zr  Zr1  1  0.99665863  0.50000000  0.50000000  1
  Zr  Zr2  1  0.25334137  0.00000000  0.50000000  1
  Zr  Zr3  1  0.25390684  0.50000000  0.00000000  1
  Zr  Zr4  1  0.50336827  0.50000000  0.50000000  1
  Zr  Zr5  1  0.74663173  0.00000000  0.50000000  1
  C  C6  1  0.99812832  0.00000000  0.50000000  1
  C  C7  1  0.99286991  0.50000000  0.00000000  1
  C  C8  1  0.25713009  0.00000000  0.00000000  1
  C  C9  1  0.25187168  0.50000000  0.50000000  1
  C  C10  1  0.50151605  0.00000000  0.50000000  1
  C  C11  1  0.50797006  0.50000000  0.00000000  1
  C  C12  1  0.74202994  0.00000000  0.00000000  1
  C  C13  1  0.74848395  0.50000000  0.50000000  1
  Ti  Ti14  1  0.50417146  0.00000000  0.00000000  1
  Ti  Ti15  1  0.74582854  0.50000000  0.00000000  1
