# generated using pymatgen
data_ZrMo3C4
_symmetry_space_group_name_H-M   'P 1'
_cell_length_a   8.88108475
_cell_length_b   4.44630116
_cell_length_c   4.45086927
_cell_angle_alpha   90.00000000
_cell_angle_beta   90.00000000
_cell_angle_gamma   90.00000000
_symmetry_Int_Tables_number   1
_chemical_formula_structural   ZrMo3C4
_chemical_formula_sum   'Zr2 Mo6 C8'
_cell_volume   175.75582526
_cell_formula_units_Z   2
loop_
 _symmetry_equiv_pos_site_id
 _symmetry_equiv_pos_as_xyz
  1  'x, y, z'
loop_
 _atom_site_type_symbol
 _atom_site_label
 _atom_site_symmetry_multiplicity
 _atom_site_fract_x
 _atom_site_fract_y
 _atom_site_fract_z
 _atom_site_occupancy
  Mo  Mo0  1  0.00366716  0.00000000  0.00000000  1
  Mo  Mo1  1  0.00252263  0.50000000  0.50000000  1
  Mo  Mo2  1  0.24633284  0.00000000  0.50000000  1
  Mo  Mo3  1  0.24747737  0.50000000  0.00000000  1
  Mo  Mo4  1  0.49853798  0.00000000  0.00000000  1
  Mo  Mo5  1  0.75146202  0.00000000  0.50000000  1
  C  C6  1  0.00108861  0.00000000  0.50000000  1
  C  C7  1  0.00572742  0.50000000  0.00000000  1
  C  C8  1  0.24891139  0.00000000  0.00000000  1
  C  C9  1  0.24427258  0.50000000  0.50000000  1
  C  C10  1  0.49802980  0.00000000  0.50000000  1
  C  C11  1  0.49464806  0.50000000  0.00000000  1
  C  C12  1  0.75197020  0.00000000  0.00000000  1
  C  C13  1  0.75535194  0.50000000  0.50000000  1
  Zr  Zr14  1  0.49643411  0.50000000  0.50000000  1
  Zr  Zr15  1  0.75356589  0.50000000  0.00000000  1
