# generated using pymatgen
data_ZrCr3C4
_symmetry_space_group_name_H-M   'P 1'
_cell_length_a   8.97044236
_cell_length_b   4.26062242
_cell_length_c   4.17749744
_cell_angle_alpha   90.00000000
_cell_angle_beta   90.00000000
_cell_angle_gamma   90.00000000
_symmetry_Int_Tables_number   1
_chemical_formula_structural   ZrCr3C4
_chemical_formula_sum   'Zr2 Cr6 C8'
_cell_volume   159.66256454
_cell_formula_units_Z   2
loop_
 _symmetry_equiv_pos_site_id
 _symmetry_equiv_pos_as_xyz
  1  'x, y, z'
loop_
 _atom_site_type_symbol
 _atom_site_label
 _atom_site_symmetry_multiplicity
 _atom_site_fract_x
 _atom_site_fract_y
 _atom_site_fract_z
 _atom_site_occupancy
  Cr  Cr0  1  0.01606989  0.00000000  0.00000000  1
  Cr  Cr1  1  0.01498136  0.50000000  0.50000000  1
  Cr  Cr2  1  0.23501864  0.00000000  0.50000000  1
  Cr  Cr3  1  0.23393011  0.50000000  0.00000000  1
  Cr  Cr4  1  0.44435076  0.00000000  0.00000000  1
  Cr  Cr5  1  0.80564924  0.50000000  0.00000000  1
  C  C6  1  0.01622579  0.00000000  0.50000000  1
  C  C7  1  0.00974174  0.50000000  0.00000000  1
  C  C8  1  0.24025826  0.00000000  0.00000000  1
  C  C9  1  0.23377421  0.50000000  0.50000000  1
  C  C10  1  0.48417022  0.00000000  0.50000000  1
  C  C11  1  0.45366782  0.50000000  0.00000000  1
  C  C12  1  0.79633218  0.00000000  0.00000000  1
  C  C13  1  0.76582978  0.50000000  0.50000000  1
  Zr  Zr14  1  0.49190835  0.50000000  0.50000000  1
  Zr  Zr15  1  0.75809165  0.00000000  0.50000000  1
