# generated using pymatgen
data_ZrW3C4
_symmetry_space_group_name_H-M   'P 1'
_cell_length_a   8.88451490
_cell_length_b   4.45012807
_cell_length_c   4.45012807
_cell_angle_alpha   90.00000000
_cell_angle_beta   90.00000000
_cell_angle_gamma   90.00000000
_symmetry_Int_Tables_number   1
_chemical_formula_structural   ZrW3C4
_chemical_formula_sum   'Zr2 W6 C8'
_cell_volume   175.94573323
_cell_formula_units_Z   2
loop_
 _symmetry_equiv_pos_site_id
 _symmetry_equiv_pos_as_xyz
  1  'x, y, z'
loop_
 _atom_site_type_symbol
 _atom_site_label
 _atom_site_symmetry_multiplicity
 _atom_site_fract_x
 _atom_site_fract_y
 _atom_site_fract_z
 _atom_site_occupancy
  W  W0  1  0.00000000  0.00000000  0.00000000  1
  W  W1  1  0.00000000  0.50000000  0.50000000  1
  W  W2  1  0.25000000  0.00000000  0.50000000  1
  W  W3  1  0.50000000  0.00000000  0.00000000  1
  W  W4  1  0.50000000  0.50000000  0.50000000  1
  W  W5  1  0.75000000  0.50000000  0.00000000  1
  Zr  Zr6  1  0.25000000  0.50000000  0.00000000  1
  Zr  Zr7  1  0.75000000  0.00000000  0.50000000  1
  C  C8  1  0.00467831  0.00000000  0.50000000  1
  C  C9  1  0.99532169  0.50000000  0.00000000  1
  C  C10  1  0.25000000  0.00000000  0.00000000  1
  C  C11  1  0.25000000  0.50000000  0.50000000  1
  C  C12  1  0.49532169  0.00000000  0.50000000  1
  C  C13  1  0.50467831  0.50000000  0.00000000  1
  C  C14  1  0.75000000  0.00000000  0.00000000  1
  C  C15  1  0.75000000  0.50000000  0.50000000  1
