# generated using pymatgen
data_ZrAl3C4
_symmetry_space_group_name_H-M   'P 1'
_cell_length_a   8.67851128
_cell_length_b   4.43850319
_cell_length_c   4.50390889
_cell_angle_alpha   90.00000000
_cell_angle_beta   90.00000000
_cell_angle_gamma   90.00000000
_symmetry_Int_Tables_number   1
_chemical_formula_structural   ZrAl3C4
_chemical_formula_sum   'Zr2 Al6 C8'
_cell_volume   173.48876888
_cell_formula_units_Z   2
loop_
 _symmetry_equiv_pos_site_id
 _symmetry_equiv_pos_as_xyz
  1  'x, y, z'
loop_
 _atom_site_type_symbol
 _atom_site_label
 _atom_site_symmetry_multiplicity
 _atom_site_fract_x
 _atom_site_fract_y
 _atom_site_fract_z
 _atom_site_occupancy
  Zr  Zr0  1  0.99113497  0.00000000  0.00000000  1
  Zr  Zr1  1  0.25886503  0.00000000  0.50000000  1
  Al  Al2  1  0.99640546  0.50000000  0.50000000  1
  Al  Al3  1  0.25359454  0.50000000  0.00000000  1
  Al  Al4  1  0.49966319  0.00000000  0.00000000  1
  Al  Al5  1  0.50693829  0.50000000  0.50000000  1
  Al  Al6  1  0.75033681  0.00000000  0.50000000  1
  Al  Al7  1  0.74306171  0.50000000  0.00000000  1
  C  C8  1  0.99549565  0.00000000  0.50000000  1
  C  C9  1  0.99422261  0.50000000  0.00000000  1
  C  C10  1  0.25450435  0.00000000  0.00000000  1
  C  C11  1  0.25577739  0.50000000  0.50000000  1
  C  C12  1  0.51526981  0.00000000  0.50000000  1
  C  C13  1  0.50132426  0.50000000  0.00000000  1
  C  C14  1  0.73473019  0.00000000  0.00000000  1
  C  C15  1  0.74867574  0.50000000  0.50000000  1
