# generated using pymatgen
data_ZrTi3C4
_symmetry_space_group_name_H-M   'P 1'
_cell_length_a   8.87215419
_cell_length_b   4.45220690
_cell_length_c   4.44580032
_cell_angle_alpha   90.00000000
_cell_angle_beta   90.00000000
_cell_angle_gamma   90.00000000
_symmetry_Int_Tables_number   1
_chemical_formula_structural   ZrTi3C4
_chemical_formula_sum   'Zr2 Ti6 C8'
_cell_volume   175.61207400
_cell_formula_units_Z   2
loop_
 _symmetry_equiv_pos_site_id
 _symmetry_equiv_pos_as_xyz
  1  'x, y, z'
loop_
 _atom_site_type_symbol
 _atom_site_label
 _atom_site_symmetry_multiplicity
 _atom_site_fract_x
 _atom_site_fract_y
 _atom_site_fract_z
 _atom_site_occupancy
  Ti  Ti0  1  0.00412745  0.00000000  0.00000000  1
  Ti  Ti1  1  0.00499284  0.50000000  0.50000000  1
  Ti  Ti2  1  0.24500716  0.00000000  0.50000000  1
  Ti  Ti3  1  0.24587255  0.50000000  0.00000000  1
  Ti  Ti4  1  0.49488010  0.50000000  0.50000000  1
  Ti  Ti5  1  0.75511990  0.00000000  0.50000000  1
  C  C6  1  0.00250062  0.00000000  0.50000000  1
  C  C7  1  0.00832590  0.50000000  0.00000000  1
  C  C8  1  0.24167410  0.00000000  0.00000000  1
  C  C9  1  0.24749938  0.50000000  0.50000000  1
  C  C10  1  0.49735986  0.00000000  0.50000000  1
  C  C11  1  0.49190851  0.50000000  0.00000000  1
  C  C12  1  0.75809149  0.00000000  0.00000000  1
  C  C13  1  0.75264014  0.50000000  0.50000000  1
  Zr  Zr14  1  0.49578916  0.00000000  0.00000000  1
  Zr  Zr15  1  0.75421084  0.50000000  0.00000000  1
