# generated using pymatgen
data_ZrNb3C4
_symmetry_space_group_name_H-M   'P 1'
_cell_length_a   9.06827133
_cell_length_b   4.53446872
_cell_length_c   4.53624090
_cell_angle_alpha   90.00000000
_cell_angle_beta   90.00000000
_cell_angle_gamma   90.00000000
_symmetry_Int_Tables_number   1
_chemical_formula_structural   ZrNb3C4
_chemical_formula_sum   'Zr2 Nb6 C8'
_cell_volume   186.52928540
_cell_formula_units_Z   2
loop_
 _symmetry_equiv_pos_site_id
 _symmetry_equiv_pos_as_xyz
  1  'x, y, z'
loop_
 _atom_site_type_symbol
 _atom_site_label
 _atom_site_symmetry_multiplicity
 _atom_site_fract_x
 _atom_site_fract_y
 _atom_site_fract_z
 _atom_site_occupancy
  Nb  Nb0  1  0.00193706  0.00000000  0.00000000  1
  Nb  Nb1  1  0.00323839  0.50000000  0.50000000  1
  Nb  Nb2  1  0.24806294  0.00000000  0.50000000  1
  Nb  Nb3  1  0.24676161  0.50000000  0.00000000  1
  Nb  Nb4  1  0.49601850  0.50000000  0.50000000  1
  Nb  Nb5  1  0.75398150  0.50000000  0.00000000  1
  C  C6  1  0.00321895  0.00000000  0.50000000  1
  C  C7  1  0.00093650  0.50000000  0.00000000  1
  C  C8  1  0.24678105  0.00000000  0.00000000  1
  C  C9  1  0.24906350  0.50000000  0.50000000  1
  C  C10  1  0.49583537  0.00000000  0.50000000  1
  C  C11  1  0.49859549  0.50000000  0.00000000  1
  C  C12  1  0.75416463  0.00000000  0.00000000  1
  C  C13  1  0.75140451  0.50000000  0.50000000  1
  Zr  Zr14  1  0.49841725  0.00000000  0.00000000  1
  Zr  Zr15  1  0.75158275  0.00000000  0.50000000  1
