# generated using pymatgen
data_Hf3ZrC4
_symmetry_space_group_name_H-M   'P 1'
_cell_length_a   9.32886167
_cell_length_b   4.66301143
_cell_length_c   4.66294990
_cell_angle_alpha   90.00000000
_cell_angle_beta   90.00000000
_cell_angle_gamma   90.00000000
_symmetry_Int_Tables_number   1
_chemical_formula_structural   Hf3ZrC4
_chemical_formula_sum   'Hf6 Zr2 C8'
_cell_volume   202.84106524
_cell_formula_units_Z   2
loop_
 _symmetry_equiv_pos_site_id
 _symmetry_equiv_pos_as_xyz
  1  'x, y, z'
loop_
 _atom_site_type_symbol
 _atom_site_label
 _atom_site_symmetry_multiplicity
 _atom_site_fract_x
 _atom_site_fract_y
 _atom_site_fract_z
 _atom_site_occupancy
  Hf  Hf0  1  0.00050402  0.00000000  0.00000000  1
  Hf  Hf1  1  0.00059206  0.50000000  0.50000000  1
  Hf  Hf2  1  0.24949598  0.00000000  0.50000000  1
  Hf  Hf3  1  0.24940794  0.50000000  0.00000000  1
  Hf  Hf4  1  0.49943214  0.50000000  0.50000000  1
  Hf  Hf5  1  0.75056786  0.50000000  0.00000000  1
  C  C6  1  0.00159868  0.00000000  0.50000000  1
  C  C7  1  0.00012289  0.50000000  0.00000000  1
  C  C8  1  0.24840132  0.00000000  0.00000000  1
  C  C9  1  0.24987711  0.50000000  0.50000000  1
  C  C10  1  0.49835011  0.00000000  0.50000000  1
  C  C11  1  0.49990819  0.50000000  0.00000000  1
  C  C12  1  0.75164989  0.00000000  0.00000000  1
  C  C13  1  0.75009181  0.50000000  0.50000000  1
  Zr  Zr14  1  0.49945088  0.00000000  0.00000000  1
  Zr  Zr15  1  0.75054912  0.00000000  0.50000000  1
