# generated using pymatgen
data_Al11(V2C)12
_symmetry_space_group_name_H-M   'P 1'
_cell_length_a   8.73036290
_cell_length_b   5.82462235
_cell_length_c   13.08922417
_cell_angle_alpha   90.00000000
_cell_angle_beta   90.00000000
_cell_angle_gamma   120.01744066
_symmetry_Int_Tables_number   1
_chemical_formula_structural   Al11(V2C)12
_chemical_formula_sum   'Al11 V24 C12'
_cell_volume   576.32605634
_cell_formula_units_Z   1
loop_
 _symmetry_equiv_pos_site_id
 _symmetry_equiv_pos_as_xyz
  1  'x, y, z'
loop_
 _atom_site_type_symbol
 _atom_site_label
 _atom_site_symmetry_multiplicity
 _atom_site_fract_x
 _atom_site_fract_y
 _atom_site_fract_z
 _atom_site_occupancy
  Al  Al0  1  0.22106402  0.16589834  0.25000000  1
  Al  Al1  1  0.10359008  0.32077036  0.75000000  1
  Al  Al2  1  0.22189395  0.66688531  0.25000000  1
  Al  Al3  1  0.10752599  0.83483737  0.75000000  1
  Al  Al4  1  0.55580321  0.16686437  0.25000000  1
  Al  Al5  1  0.45270675  0.34490243  0.75000000  1
  Al  Al6  1  0.55539126  0.66666744  0.25000000  1
  Al  Al7  1  0.45180600  0.83374199  0.75000000  1
  Al  Al8  1  0.88883010  0.16654304  0.25000000  1
  Al  Al9  1  0.77981130  0.33421584  0.75000000  1
  Al  Al10  1  0.88827833  0.66630191  0.25000000  1
  V  V11  1  0.22189095  0.16579718  0.91450669  1
  V  V12  1  0.11127864  0.33420356  0.08414701  1
  V  V13  1  0.11127864  0.33420356  0.41585299  1
  V  V14  1  0.22189095  0.16579718  0.58549331  1
  V  V15  1  0.22305790  0.66781856  0.91382780  1
  V  V16  1  0.11056191  0.83236419  0.08439340  1
  V  V17  1  0.11056191  0.83236419  0.41560660  1
  V  V18  1  0.22305790  0.66781856  0.58617220  1
  V  V19  1  0.55536874  0.16659566  0.91450807  1
  V  V20  1  0.44449126  0.33295163  0.08479155  1
  V  V21  1  0.44449126  0.33295163  0.41520845  1
  V  V22  1  0.55536874  0.16659566  0.58549193  1
  V  V23  1  0.55499694  0.66648978  0.91516510  1
  V  V24  1  0.44448002  0.83380255  0.08481166  1
  V  V25  1  0.44448002  0.83380255  0.41518834  1
  V  V26  1  0.55499694  0.66648978  0.58483490  1
  V  V27  1  0.88840796  0.16517098  0.91449905  1
  V  V28  1  0.77741597  0.33319115  0.08441021  1
  V  V29  1  0.77741597  0.33319115  0.41558979  1
  V  V30  1  0.88840796  0.16517098  0.58550095  1
  V  V31  1  0.88863845  0.66786074  0.91414127  1
  V  V32  1  0.77773967  0.83323984  0.08439585  1
  V  V33  1  0.77773967  0.83323984  0.41560415  1
  V  V34  1  0.88863845  0.66786074  0.58585873  1
  C  C35  1  0.00020167  0.00021704  0.99921892  1
  C  C36  1  0.00020167  0.00021704  0.50078108  1
  C  C37  1  0.99851621  0.49910800  0.99702174  1
  C  C38  1  0.99851621  0.49910800  0.50297826  1
  C  C39  1  0.33307836  0.99953231  0.99935177  1
  C  C40  1  0.33307836  0.99953231  0.50064823  1
  C  C41  1  0.33458422  0.50116959  0.99856151  1
  C  C42  1  0.33458422  0.50116959  0.50143849  1
  C  C43  1  0.66649999  0.00013013  0.99910354  1
  C  C44  1  0.66649999  0.00013013  0.50089646  1
  C  C45  1  0.66655068  0.49987789  0.99898253  1
  C  C46  1  0.66655068  0.49987789  0.50101747  1
