# generated using pymatgen
data_Al7(V2C)8
_symmetry_space_group_name_H-M   'P 1'
_cell_length_a   5.82921628
_cell_length_b   5.82921627
_cell_length_c   13.03073171
_cell_angle_alpha   90.00000000
_cell_angle_beta   90.00000000
_cell_angle_gamma   119.99967146
_symmetry_Int_Tables_number   1
_chemical_formula_structural   Al7(V2C)8
_chemical_formula_sum   'Al7 V16 C8'
_cell_volume   383.46100880
_cell_formula_units_Z   1
loop_
 _symmetry_equiv_pos_site_id
 _symmetry_equiv_pos_as_xyz
  1  'x, y, z'
loop_
 _atom_site_type_symbol
 _atom_site_label
 _atom_site_symmetry_multiplicity
 _atom_site_fract_x
 _atom_site_fract_y
 _atom_site_fract_z
 _atom_site_occupancy
  Al  Al0  1  0.33343935  0.16671972  0.25000000  1
  Al  Al1  1  0.16677836  0.33355944  0.75000000  1
  Al  Al2  1  0.16678032  0.83321968  0.75000000  1
  Al  Al3  1  0.83328024  0.16671976  0.25000000  1
  Al  Al4  1  0.66666786  0.33333214  0.75000000  1
  Al  Al5  1  0.83328028  0.66656065  0.25000000  1
  Al  Al6  1  0.66644056  0.83322164  0.75000000  1
  V  V7  1  0.33259559  0.16629734  0.91631593  1
  V  V8  1  0.16840910  0.33681841  0.08674488  1
  V  V9  1  0.16840910  0.33681841  0.41325512  1
  V  V10  1  0.33259559  0.16629734  0.58368407  1
  V  V11  1  0.33333316  0.66666684  0.91588737  1
  V  V12  1  0.16840983  0.83159017  0.08674496  1
  V  V13  1  0.16840983  0.83159017  0.41325504  1
  V  V14  1  0.33333316  0.66666684  0.58411263  1
  V  V15  1  0.83370225  0.16629775  0.91631481  1
  V  V16  1  0.66666699  0.33333301  0.08590587  1
  V  V17  1  0.66666699  0.33333301  0.41409413  1
  V  V18  1  0.83370225  0.16629775  0.58368519  1
  V  V19  1  0.83370266  0.66740441  0.91631593  1
  V  V20  1  0.66318159  0.83159090  0.08674488  1
  V  V21  1  0.66318159  0.83159090  0.41325512  1
  V  V22  1  0.83370266  0.66740441  0.58368407  1
  C  C23  1  0.00000001  -0.00000001  0.00516093  1
  C  C24  1  0.00000001  -0.00000001  0.49483907  1
  C  C25  1  0.99987637  0.49993796  0.00156723  1
  C  C26  1  0.99987637  0.49993796  0.49843277  1
  C  C27  1  0.50006204  0.00012363  0.00156723  1
  C  C28  1  0.50006204  0.00012363  0.49843277  1
  C  C29  1  0.50006191  0.49993809  0.00156766  1
  C  C30  1  0.50006191  0.49993809  0.49843234  1
