# generated using pymatgen
data_Al11(V2C)12
_symmetry_space_group_name_H-M   'P 1'
_cell_length_a   8.73035536
_cell_length_b   5.82464101
_cell_length_c   13.08930361
_cell_angle_alpha   90.00000000
_cell_angle_beta   90.00000000
_cell_angle_gamma   120.01739093
_symmetry_Int_Tables_number   1
_chemical_formula_structural   Al11(V2C)12
_chemical_formula_sum   'Al11 V24 C12'
_cell_volume   576.33119216
_cell_formula_units_Z   1
loop_
 _symmetry_equiv_pos_site_id
 _symmetry_equiv_pos_as_xyz
  1  'x, y, z'
loop_
 _atom_site_type_symbol
 _atom_site_label
 _atom_site_symmetry_multiplicity
 _atom_site_fract_x
 _atom_site_fract_y
 _atom_site_fract_z
 _atom_site_occupancy
  Al  Al0  1  0.11172502  0.33370661  0.75000000  1
  Al  Al1  1  0.22018424  0.66577585  0.25000000  1
  Al  Al2  1  0.11117379  0.83346454  0.75000000  1
  Al  Al3  1  0.54818704  0.16625179  0.25000000  1
  Al  Al4  1  0.44461080  0.33333785  0.75000000  1
  Al  Al5  1  0.54728704  0.65509148  0.25000000  1
  Al  Al6  1  0.44419932  0.83314077  0.75000000  1
  Al  Al7  1  0.89247085  0.16515108  0.25000000  1
  Al  Al8  1  0.77810791  0.33311682  0.75000000  1
  Al  Al9  1  0.89640573  0.67921886  0.25000000  1
  Al  Al10  1  0.77894010  0.83410618  0.75000000  1
  V  V11  1  0.22226070  0.16676103  0.91560450  1
  V  V12  1  0.11136076  0.33214089  0.08585733  1
  V  V13  1  0.11136076  0.33214089  0.41414267  1
  V  V14  1  0.22226070  0.16676103  0.58439550  1
  V  V15  1  0.22258493  0.66681088  0.91558972  1
  V  V16  1  0.11159184  0.83482867  0.08550043  1
  V  V17  1  0.11159184  0.83482867  0.41449957  1
  V  V18  1  0.22258493  0.66681088  0.58441028  1
  V  V19  1  0.55552031  0.16619736  0.91518806  1
  V  V20  1  0.44500394  0.33351057  0.08483366  1
  V  V21  1  0.44500394  0.33351057  0.41516634  1
  V  V22  1  0.55552031  0.16619736  0.58481194  1
  V  V23  1  0.55550920  0.66704880  0.91520821  1
  V  V24  1  0.44463119  0.83340321  0.08549116  1
  V  V25  1  0.44463119  0.83340321  0.41450884  1
  V  V26  1  0.55550920  0.66704880  0.58479179  1
  V  V27  1  0.88943876  0.16763674  0.91560666  1
  V  V28  1  0.77694163  0.33217980  0.08617148  1
  V  V29  1  0.77694163  0.33217980  0.41382852  1
  V  V30  1  0.88943876  0.16763674  0.58439334  1
  V  V31  1  0.88872211  0.66579857  0.91585284  1
  V  V32  1  0.77810853  0.83420103  0.08549231  1
  V  V33  1  0.77810853  0.83420103  0.41450769  1
  V  V34  1  0.88872211  0.66579857  0.58414716  1
  C  C35  1  0.99979858  0.99978374  0.00078112  1
  C  C36  1  0.99979858  0.99978374  0.49921888  1
  C  C37  1  0.00148344  0.50089317  0.00297716  1
  C  C38  1  0.00148344  0.50089317  0.49702284  1
  C  C39  1  0.33350037  0.99987020  0.00089641  1
  C  C40  1  0.33350037  0.99987020  0.49910359  1
  C  C41  1  0.33344949  0.50012228  0.00101689  1
  C  C42  1  0.33344949  0.50012228  0.49898311  1
  C  C43  1  0.66692196  0.00046705  0.00064760  1
  C  C44  1  0.66692196  0.00046705  0.49935240  1
  C  C45  1  0.66541634  0.49883010  0.00143739  1
  C  C46  1  0.66541634  0.49883010  0.49856261  1
