# generated using pymatgen
data_Al17(V2C)18
_symmetry_space_group_name_H-M   'P 1'
_cell_length_a   8.72975656
_cell_length_b   8.72959148
_cell_length_c   13.11344432
_cell_angle_alpha   90.00000000
_cell_angle_beta   90.00000000
_cell_angle_gamma   119.99934764
_symmetry_Int_Tables_number   1
_chemical_formula_structural   Al17(V2C)18
_chemical_formula_sum   'Al17 V36 C18'
_cell_volume   865.45863705
_cell_formula_units_Z   1
loop_
 _symmetry_equiv_pos_site_id
 _symmetry_equiv_pos_as_xyz
  1  'x, y, z'
loop_
 _atom_site_type_symbol
 _atom_site_label
 _atom_site_symmetry_multiplicity
 _atom_site_fract_x
 _atom_site_fract_y
 _atom_site_fract_z
 _atom_site_occupancy
  Al  Al0  1  0.22205290  0.11102644  0.25000000  1
  Al  Al1  1  0.11139039  0.22185314  0.75000000  1
  Al  Al2  1  0.22932594  0.45153758  0.25000000  1
  Al  Al3  1  0.11105750  0.55552902  0.75000000  1
  Al  Al4  1  0.22932599  0.77778779  0.25000000  1
  Al  Al5  1  0.11139034  0.88953689  0.75000000  1
  Al  Al6  1  0.55566941  0.10413992  0.25000000  1
  Al  Al7  1  0.44373105  0.22186545  0.75000000  1
  Al  Al8  1  0.55566824  0.45152781  0.25000000  1
  Al  Al9  1  0.44474790  0.55616672  0.75000000  1
  Al  Al10  1  0.44474773  0.88858101  0.75000000  1
  Al  Al11  1  0.88180236  0.10414447  0.25000000  1
  Al  Al12  1  0.77774433  0.22220428  0.75000000  1
  Al  Al13  1  0.88895172  0.44447582  0.25000000  1
  Al  Al14  1  0.77774457  0.55554073  0.75000000  1
  Al  Al15  1  0.88180113  0.77765761  0.25000000  1
  Al  Al16  1  0.77725801  0.88862903  0.75000000  1
  V  V17  1  0.22222572  0.11111272  0.91611620  1
  V  V18  1  0.11085853  0.22243868  0.08583744  1
  V  V19  1  0.11085853  0.22243868  0.41416256  1
  V  V20  1  0.22222572  0.11111272  0.58388380  1
  V  V21  1  0.22219563  0.44454113  0.91525501  1
  V  V22  1  0.11102917  0.55551428  0.08541680  1
  V  V23  1  0.11102917  0.55551428  0.41458320  1
  V  V24  1  0.22219563  0.44454113  0.58474499  1
  V  V25  1  0.22219575  0.77765493  0.91525498  1
  V  V26  1  0.11085829  0.88842005  0.08583770  1
  V  V27  1  0.11085829  0.88842005  0.41416230  1
  V  V28  1  0.22219575  0.77765493  0.58474502  1
  V  V29  1  0.55569411  0.11116941  0.91525414  1
  V  V30  1  0.44489686  0.22244817  0.08587695  1
  V  V31  1  0.44489686  0.22244817  0.41412305  1
  V  V32  1  0.55569411  0.11116941  0.58474586  1
  V  V33  1  0.55569463  0.44452495  0.91525391  1
  V  V34  1  0.44428863  0.55522662  0.08513095  1
  V  V35  1  0.44428863  0.55522662  0.41486905  1
  V  V36  1  0.55569463  0.44452495  0.58474609  1
  V  V37  1  0.55557277  0.77778656  0.91573559  1
  V  V38  1  0.44428867  0.88906182  0.08513020  1
  V  V39  1  0.44428867  0.88906182  0.41486980  1
  V  V40  1  0.55557277  0.77778656  0.58426441  1
  V  V41  1  0.88877021  0.11115131  0.91523508  1
  V  V42  1  0.77785138  0.22232368  0.08541208  1
  V  V43  1  0.77785138  0.22232368  0.41458792  1
  V  V44  1  0.88877021  0.11115131  0.58476492  1
  V  V45  1  0.88886205  0.44443130  0.91526255  1
  V  V46  1  0.77785127  0.55552748  0.08541139  1
  V  V47  1  0.77785127  0.55552748  0.41458861  1
  V  V48  1  0.88886205  0.44443130  0.58473745  1
  V  V49  1  0.88877025  0.77761887  0.91523473  1
  V  V50  1  0.77812493  0.88906267  0.08512129  1
  V  V51  1  0.77812493  0.88906267  0.41487871  1
  V  V52  1  0.88877025  0.77761887  0.58476527  1
  C  C53  1  0.99855989  0.99928006  0.00148069  1
  C  C54  1  0.99855989  0.99928006  0.49851931  1
  C  C55  1  0.00010431  0.33324412  0.00052117  1
  C  C56  1  0.00010431  0.33324412  0.49947883  1
  C  C57  1  0.00010490  0.66686056  0.00052097  1
  C  C58  1  0.00010490  0.66686056  0.49947903  1
  C  C59  1  0.33404858  0.99929906  0.00152173  1
  C  C60  1  0.33404858  0.99929906  0.49847827  1
  C  C61  1  0.33404909  0.33474977  0.00152189  1
  C  C62  1  0.33404909  0.33474977  0.49847811  1
  C  C63  1  0.33312307  0.66656153  0.00081351  1
  C  C64  1  0.33312307  0.66656153  0.49918649  1
  C  C65  1  0.66677156  0.00022263  0.00080299  1
  C  C66  1  0.66677156  0.00022263  0.49919701  1
  C  C67  1  0.66645394  0.33322656  0.00055317  1
  C  C68  1  0.66645394  0.33322656  0.49944683  1
  C  C69  1  0.66677109  0.66654922  0.00080298  1
  C  C70  1  0.66677109  0.66654922  0.49919702  1
