# generated using pymatgen
data_Al7(V2C)8
_symmetry_space_group_name_H-M   'P 1'
_cell_length_a   5.82863296
_cell_length_b   5.82863296
_cell_length_c   13.02928132
_cell_angle_alpha   90.00000000
_cell_angle_beta   90.00000000
_cell_angle_gamma   120.00024074
_symmetry_Int_Tables_number   1
_chemical_formula_structural   Al7(V2C)8
_chemical_formula_sum   'Al7 V16 C8'
_cell_volume   383.33939689
_cell_formula_units_Z   1
loop_
 _symmetry_equiv_pos_site_id
 _symmetry_equiv_pos_as_xyz
  1  'x, y, z'
loop_
 _atom_site_type_symbol
 _atom_site_label
 _atom_site_symmetry_multiplicity
 _atom_site_fract_x
 _atom_site_fract_y
 _atom_site_fract_z
 _atom_site_occupancy
  Al  Al0  1  0.33327642  0.16655025  0.25000000  1
  Al  Al1  1  0.16644426  0.33322164  0.75000000  1
  Al  Al2  1  0.33327570  0.66672430  0.25000000  1
  Al  Al3  1  0.16666603  0.83333397  0.75000000  1
  Al  Al4  1  0.66677715  0.33322285  0.75000000  1
  Al  Al5  1  0.83344975  0.66672358  0.25000000  1
  Al  Al6  1  0.66677836  0.83355574  0.75000000  1
  V  V7  1  0.33371090  0.16741881  0.91630929  1
  V  V8  1  0.16316232  0.33158130  0.08676141  1
  V  V9  1  0.16316232  0.33158130  0.41323859  1
  V  V10  1  0.33371090  0.16741881  0.58369071  1
  V  V11  1  0.33370886  0.66629114  0.91630816  1
  V  V12  1  0.16666680  0.83333320  0.08591574  1
  V  V13  1  0.16666680  0.83333320  0.41408426  1
  V  V14  1  0.33370886  0.66629114  0.58369184  1
  V  V15  1  0.83333303  0.16666697  0.91586805  1
  V  V16  1  0.66841722  0.33158278  0.08676007  1
  V  V17  1  0.66841722  0.33158278  0.41323993  1
  V  V18  1  0.83333303  0.16666697  0.58413195  1
  V  V19  1  0.83258119  0.66628910  0.91630929  1
  V  V20  1  0.66841870  0.83683768  0.08676141  1
  V  V21  1  0.66841870  0.83683768  0.41323859  1
  V  V22  1  0.83258119  0.66628910  0.58369071  1
  C  C23  1  0.00006276  0.99993724  0.00156552  1
  C  C24  1  0.00006276  0.99993724  0.49843448  1
  C  C25  1  0.00006068  0.50012393  0.00156617  1
  C  C26  1  0.00006068  0.50012393  0.49843383  1
  C  C27  1  0.49987607  0.99993932  0.00156617  1
  C  C28  1  0.49987607  0.99993932  0.49843383  1
  C  C29  1  0.50000261  0.49999739  0.00516774  1
  C  C30  1  0.50000261  0.49999739  0.49483226  1
