# generated using pymatgen
data_Al7(V2C)8
_symmetry_space_group_name_H-M   'P 1'
_cell_length_a   5.82928760
_cell_length_b   5.82928760
_cell_length_c   13.03077816
_cell_angle_alpha   90.00000000
_cell_angle_beta   90.00000000
_cell_angle_gamma   119.99981671
_symmetry_Int_Tables_number   1
_chemical_formula_structural   Al7(V2C)8
_chemical_formula_sum   'Al7 V16 C8'
_cell_volume   383.47119805
_cell_formula_units_Z   1
loop_
 _symmetry_equiv_pos_site_id
 _symmetry_equiv_pos_as_xyz
  1  'x, y, z'
loop_
 _atom_site_type_symbol
 _atom_site_label
 _atom_site_symmetry_multiplicity
 _atom_site_fract_x
 _atom_site_fract_y
 _atom_site_fract_z
 _atom_site_occupancy
  Al  Al0  1  0.16678319  0.33321681  0.75000000  1
  Al  Al1  1  0.33349984  0.66674854  0.25000000  1
  Al  Al2  1  0.16678342  0.83356585  0.75000000  1
  Al  Al3  1  0.83325146  0.16650016  0.25000000  1
  Al  Al4  1  0.66643415  0.33321658  0.75000000  1
  Al  Al5  1  0.83325052  0.66674948  0.25000000  1
  Al  Al6  1  0.66666644  0.83333356  0.75000000  1
  V  V7  1  0.33333316  0.16666684  0.91586148  1
  V  V8  1  0.16841644  0.33158356  0.08671927  1
  V  V9  1  0.16841644  0.33158356  0.41328073  1
  V  V10  1  0.33333316  0.16666684  0.58413852  1
  V  V11  1  0.33258505  0.66629215  0.91629144  1
  V  V12  1  0.16841658  0.83683294  0.08671861  1
  V  V13  1  0.16841658  0.83683294  0.41328139  1
  V  V14  1  0.33258505  0.66629215  0.58370856  1
  V  V15  1  0.83370785  0.16741495  0.91629144  1
  V  V16  1  0.66316706  0.33158342  0.08671861  1
  V  V17  1  0.66316706  0.33158342  0.41328139  1
  V  V18  1  0.83370785  0.16741495  0.58370856  1
  V  V19  1  0.83370747  0.66629253  0.91629091  1
  V  V20  1  0.66666687  0.83333313  0.08585947  1
  V  V21  1  0.66666687  0.83333313  0.41414053  1
  V  V22  1  0.83370747  0.66629253  0.58370909  1
  C  C23  1  0.99987570  0.99993715  0.00152902  1
  C  C24  1  0.99987570  0.99993715  0.49847098  1
  C  C25  1  -0.00000059  0.50000059  0.00515823  1
  C  C26  1  -0.00000059  0.50000059  0.49484177  1
  C  C27  1  0.50006206  0.99993794  0.00152869  1
  C  C28  1  0.50006206  0.99993794  0.49847131  1
  C  C29  1  0.50006285  0.50012430  0.00152902  1
  C  C30  1  0.50006285  0.50012430  0.49847098  1
