# generated using pymatgen
data_Al11(V2C)12
_symmetry_space_group_name_H-M   'P 1'
_cell_length_a   8.73035281
_cell_length_b   5.82462164
_cell_length_c   13.08925864
_cell_angle_alpha   90.00000000
_cell_angle_beta   90.00000000
_cell_angle_gamma   120.01748783
_symmetry_Int_Tables_number   1
_chemical_formula_structural   Al11(V2C)12
_chemical_formula_sum   'Al11 V24 C12'
_cell_volume   576.32656402
_cell_formula_units_Z   1
loop_
 _symmetry_equiv_pos_site_id
 _symmetry_equiv_pos_as_xyz
  1  'x, y, z'
loop_
 _atom_site_type_symbol
 _atom_site_label
 _atom_site_symmetry_multiplicity
 _atom_site_fract_x
 _atom_site_fract_y
 _atom_site_fract_z
 _atom_site_occupancy
  Al  Al0  1  0.22018663  0.16578062  0.25000000  1
  Al  Al1  1  0.11117216  0.33345962  0.75000000  1
  Al  Al2  1  0.11172342  0.83370021  0.75000000  1
  Al  Al3  1  0.54728986  0.15509459  0.25000000  1
  Al  Al4  1  0.44419829  0.33313753  0.75000000  1
  Al  Al5  1  0.54818924  0.66625433  0.25000000  1
  Al  Al6  1  0.44461025  0.83333429  0.75000000  1
  Al  Al7  1  0.89640759  0.17922582  0.25000000  1
  Al  Al8  1  0.77893867  0.33410448  0.75000000  1
  Al  Al9  1  0.89247250  0.66515986  0.25000000  1
  Al  Al10  1  0.77810840  0.83311676  0.75000000  1
  V  V11  1  0.22258398  0.16680914  0.91558972  1
  V  V12  1  0.11159234  0.33482938  0.08550126  1
  V  V13  1  0.11159234  0.33482938  0.41449874  1
  V  V14  1  0.22258398  0.16680914  0.58441028  1
  V  V15  1  0.22226021  0.66675991  0.91560428  1
  V  V16  1  0.11136172  0.83214027  0.08585849  1
  V  V17  1  0.11136172  0.83214027  0.41414151  1
  V  V18  1  0.22226021  0.66675991  0.58439572  1
  V  V19  1  0.55550910  0.16704853  0.91520825  1
  V  V20  1  0.44463086  0.33340339  0.08549170  1
  V  V21  1  0.44463086  0.33340339  0.41450830  1
  V  V22  1  0.55550910  0.16704853  0.58479175  1
  V  V23  1  0.55552019  0.66619742  0.91518828  1
  V  V24  1  0.44500355  0.83351058  0.08483449  1
  V  V25  1  0.44500355  0.83351058  0.41516551  1
  V  V26  1  0.55552019  0.66619742  0.58481172  1
  V  V27  1  0.88872184  0.16579753  0.91585328  1
  V  V28  1  0.77810858  0.33420226  0.08549336  1
  V  V29  1  0.77810858  0.33420226  0.41450664  1
  V  V30  1  0.88872184  0.16579753  0.58414672  1
  V  V31  1  0.88943820  0.66763615  0.91560716  1
  V  V32  1  0.77694157  0.83218076  0.08617222  1
  V  V33  1  0.77694157  0.83218076  0.41382778  1
  V  V34  1  0.88943820  0.66763615  0.58439284  1
  C  C35  1  0.00148361  0.00089247  0.00297839  1
  C  C36  1  0.00148361  0.00089247  0.49702161  1
  C  C37  1  0.99979841  0.49978354  0.00078167  1
  C  C38  1  0.99979841  0.49978354  0.49921833  1
  C  C39  1  0.33344939  0.00012191  0.00101702  1
  C  C40  1  0.33344939  0.00012191  0.49898298  1
  C  C41  1  0.33350019  0.49986985  0.00089647  1
  C  C42  1  0.33350019  0.49986985  0.49910353  1
  C  C43  1  0.66541611  0.99883054  0.00143814  1
  C  C44  1  0.66541611  0.99883054  0.49856186  1
  C  C45  1  0.66692166  0.50046735  0.00064826  1
  C  C46  1  0.66692166  0.50046735  0.49935174  1
