# generated using pymatgen
data_Al17(V2C)18
_symmetry_space_group_name_H-M   'P 1'
_cell_length_a   8.72974939
_cell_length_b   8.72958994
_cell_length_c   13.11347652
_cell_angle_alpha   90.00000000
_cell_angle_beta   90.00000000
_cell_angle_gamma   119.99937929
_symmetry_Int_Tables_number   1
_chemical_formula_structural   Al17(V2C)18
_chemical_formula_sum   'Al17 V36 C18'
_cell_volume   865.45962321
_cell_formula_units_Z   1
loop_
 _symmetry_equiv_pos_site_id
 _symmetry_equiv_pos_as_xyz
  1  'x, y, z'
loop_
 _atom_site_type_symbol
 _atom_site_label
 _atom_site_symmetry_multiplicity
 _atom_site_fract_x
 _atom_site_fract_y
 _atom_site_fract_z
 _atom_site_occupancy
  Al  Al0  1  0.22274009  0.11136986  0.25000000  1
  Al  Al1  1  0.11819953  0.22234326  0.75000000  1
  Al  Al2  1  0.22225601  0.44445878  0.25000000  1
  Al  Al3  1  0.11104846  0.55552482  0.75000000  1
  Al  Al4  1  0.22225524  0.77779651  0.25000000  1
  Al  Al5  1  0.11819997  0.89585741  0.75000000  1
  Al  Al6  1  0.55525182  0.11141736  0.25000000  1
  Al  Al7  1  0.55525203  0.44383451  0.25000000  1
  Al  Al8  1  0.44433097  0.54847260  0.75000000  1
  Al  Al9  1  0.55626824  0.77813403  0.25000000  1
  Al  Al10  1  0.44433100  0.89585879  0.75000000  1
  Al  Al11  1  0.88861055  0.11046335  0.25000000  1
  Al  Al12  1  0.77067413  0.22221187  0.75000000  1
  Al  Al13  1  0.88894077  0.44446985  0.25000000  1
  Al  Al14  1  0.77067475  0.54846321  0.75000000  1
  Al  Al15  1  0.88861039  0.77814542  0.25000000  1
  Al  Al16  1  0.77794768  0.88897394  0.75000000  1
  V  V17  1  0.22187600  0.11093830  0.91487987  1
  V  V18  1  0.11122992  0.22238163  0.08476530  1
  V  V19  1  0.11122992  0.22238163  0.41523470  1
  V  V20  1  0.22187600  0.11093830  0.58512013  1
  V  V21  1  0.22214927  0.44447228  0.91458867  1
  V  V22  1  0.11113827  0.55556867  0.08473747  1
  V  V23  1  0.11113827  0.55556867  0.41526253  1
  V  V24  1  0.22214927  0.44447228  0.58541133  1
  V  V25  1  0.22214912  0.77767718  0.91458899  1
  V  V26  1  0.11122993  0.88884851  0.08476563  1
  V  V27  1  0.11122993  0.88884851  0.41523437  1
  V  V28  1  0.22214912  0.77767718  0.58541101  1
  V  V29  1  0.55571025  0.11093799  0.91486992  1
  V  V30  1  0.44442684  0.22221370  0.08426528  1
  V  V31  1  0.44442684  0.22221370  0.41573472  1
  V  V32  1  0.55571025  0.11093799  0.58513008  1
  V  V33  1  0.55571038  0.44477254  0.91487000  1
  V  V34  1  0.44430493  0.55547518  0.08474592  1
  V  V35  1  0.44430493  0.55547518  0.41525408  1
  V  V36  1  0.55571038  0.44477254  0.58513000  1
  V  V37  1  0.55510249  0.77755083  0.91412349  1
  V  V38  1  0.44430479  0.88882979  0.08474593  1
  V  V39  1  0.44430479  0.88882979  0.41525407  1
  V  V40  1  0.55510249  0.77755083  0.58587651  1
  V  V41  1  0.88914240  0.11158042  0.91416212  1
  V  V42  1  0.77780453  0.22234491  0.08474501  1
  V  V43  1  0.77780453  0.22234491  0.41525499  1
  V  V44  1  0.88914240  0.11158042  0.58583788  1
  V  V45  1  0.88897046  0.44448521  0.91458331  1
  V  V46  1  0.77780418  0.55545899  0.08474531  1
  V  V47  1  0.77780418  0.55545899  0.41525469  1
  V  V48  1  0.88897046  0.44448521  0.58541669  1
  V  V49  1  0.88914261  0.77756195  0.91416269  1
  V  V50  1  0.77777437  0.88888711  0.08388436  1
  V  V51  1  0.77777437  0.88888711  0.41611564  1
  V  V52  1  0.88914261  0.77756195  0.58583731  1
  C  C53  1  0.00144108  0.00072070  0.99852008  1
  C  C54  1  0.00144108  0.00072070  0.50147992  1
  C  C55  1  0.99989603  0.33313927  0.99947878  1
  C  C56  1  0.99989603  0.33313927  0.50052122  1
  C  C57  1  0.99989585  0.66675662  0.99947933  1
  C  C58  1  0.99989585  0.66675662  0.50052067  1
  C  C59  1  0.33322806  0.99977726  0.99919815  1
  C  C60  1  0.33322806  0.99977726  0.50080185  1
  C  C61  1  0.33322822  0.33345133  0.99919797  1
  C  C62  1  0.33322822  0.33345133  0.50080203  1
  C  C63  1  0.33354625  0.66677323  0.99944682  1
  C  C64  1  0.33354625  0.66677323  0.50055318  1
  C  C65  1  0.66595064  0.00070007  0.99847795  1
  C  C66  1  0.66595064  0.00070007  0.50152205  1
  C  C67  1  0.66687653  0.33343824  0.99918684  1
  C  C68  1  0.66687653  0.33343824  0.50081316  1
  C  C69  1  0.66595079  0.66525027  0.99847828  1
  C  C70  1  0.66595079  0.66525027  0.50152172  1
