# generated using pymatgen
data_Al17(V2C)18
_symmetry_space_group_name_H-M   'P 1'
_cell_length_a   8.72976192
_cell_length_b   8.72976193
_cell_length_c   13.11348583
_cell_angle_alpha   90.00000000
_cell_angle_beta   90.00000000
_cell_angle_gamma   120.00119930
_symmetry_Int_Tables_number   1
_chemical_formula_structural   Al17(V2C)18
_chemical_formula_sum   'Al17 V36 C18'
_cell_volume   865.46265783
_cell_formula_units_Z   1
loop_
 _symmetry_equiv_pos_site_id
 _symmetry_equiv_pos_as_xyz
  1  'x, y, z'
loop_
 _atom_site_type_symbol
 _atom_site_label
 _atom_site_symmetry_multiplicity
 _atom_site_fract_x
 _atom_site_fract_y
 _atom_site_fract_z
 _atom_site_occupancy
  Al  Al0  1  0.22185358  0.11046462  0.25000000  1
  Al  Al1  1  0.10414259  0.22234437  0.75000000  1
  Al  Al2  1  0.22220076  0.44445651  0.25000000  1
  Al  Al3  1  0.10414270  0.54847454  0.75000000  1
  Al  Al4  1  0.22186650  0.77813350  0.25000000  1
  Al  Al5  1  0.11102674  0.88897326  0.75000000  1
  Al  Al6  1  0.55616308  0.11141605  0.25000000  1
  Al  Al7  1  0.45153779  0.22221174  0.75000000  1
  Al  Al8  1  0.55553027  0.44446973  0.25000000  1
  Al  Al9  1  0.44447583  0.55552417  0.75000000  1
  Al  Al10  1  0.55554349  0.77779924  0.25000000  1
  Al  Al11  1  0.45152546  0.89585730  0.75000000  1
  Al  Al12  1  0.88862616  0.11137384  0.25000000  1
  Al  Al13  1  0.88858395  0.44383692  0.25000000  1
  Al  Al14  1  0.77778826  0.54846221  0.75000000  1
  Al  Al15  1  0.88953538  0.77814642  0.25000000  1
  Al  Al16  1  0.77765563  0.89585741  0.75000000  1
  V  V17  1  0.22243850  0.11158087  0.91416210  1
  V  V18  1  0.11115173  0.22238208  0.08476500  1
  V  V19  1  0.11115173  0.22238208  0.41523500  1
  V  V20  1  0.22243850  0.11158087  0.58583790  1
  V  V21  1  0.22232231  0.44447278  0.91458883  1
  V  V22  1  0.11117071  0.55547479  0.08474507  1
  V  V23  1  0.11117071  0.55547479  0.41525493  1
  V  V24  1  0.22232231  0.44447278  0.58541117  1
  V  V25  1  0.22244928  0.77755072  0.91412375  1
  V  V26  1  0.11111275  0.88888725  0.08388486  1
  V  V27  1  0.11111275  0.88888725  0.41611514  1
  V  V28  1  0.22244928  0.77755072  0.58587625  1
  V  V29  1  0.55522746  0.11093658  0.91486958  1
  V  V30  1  0.44454140  0.22234503  0.08474498  1
  V  V31  1  0.44454140  0.22234503  0.41525502  1
  V  V32  1  0.55522746  0.11093658  0.58513042  1
  V  V33  1  0.55551526  0.44448474  0.91458297  1
  V  V34  1  0.44443080  0.55556920  0.08473724  1
  V  V35  1  0.44443080  0.55556920  0.41526276  1
  V  V36  1  0.55551526  0.44448474  0.58541703  1
  V  V37  1  0.55552722  0.77767769  0.91458883  1
  V  V38  1  0.44452521  0.88882929  0.08474507  1
  V  V39  1  0.44452521  0.88882929  0.41525493  1
  V  V40  1  0.55552722  0.77767769  0.58541117  1
  V  V41  1  0.88906173  0.11093827  0.91487972  1
  V  V42  1  0.77778684  0.22221316  0.08426355  1
  V  V43  1  0.77778684  0.22221316  0.41573645  1
  V  V44  1  0.88906173  0.11093827  0.58512028  1
  V  V45  1  0.88906342  0.44477254  0.91486958  1
  V  V46  1  0.77765497  0.55545860  0.08474498  1
  V  V47  1  0.77765497  0.55545860  0.41525502  1
  V  V48  1  0.88906342  0.44477254  0.58513042  1
  V  V49  1  0.88841913  0.77756150  0.91416210  1
  V  V50  1  0.77761792  0.88884827  0.08476500  1
  V  V51  1  0.77761792  0.88884827  0.41523500  1
  V  V52  1  0.88841913  0.77756150  0.58583790  1
  C  C53  1  0.99927867  0.00072133  0.99852025  1
  C  C54  1  0.99927867  0.00072133  0.50147975  1
  C  C55  1  0.00022567  0.33345234  0.99919715  1
  C  C56  1  0.00022567  0.33345234  0.50080285  1
  C  C57  1  0.99930056  0.66524958  0.99847821  1
  C  C58  1  0.99930056  0.66524958  0.50152179  1
  C  C59  1  0.33475042  0.00069944  0.99847821  1
  C  C60  1  0.33475042  0.00069944  0.50152179  1
  C  C61  1  0.33324204  0.33313793  0.99947888  1
  C  C62  1  0.33324204  0.33313793  0.50052112  1
  C  C63  1  0.33322568  0.66677432  0.99944606  1
  C  C64  1  0.33322568  0.66677432  0.50055394  1
  C  C65  1  0.66654766  0.99977433  0.99919715  1
  C  C66  1  0.66654766  0.99977433  0.50080285  1
  C  C67  1  0.66656153  0.33343847  0.99918598  1
  C  C68  1  0.66656153  0.33343847  0.50081402  1
  C  C69  1  0.66686207  0.66675796  0.99947888  1
  C  C70  1  0.66686207  0.66675796  0.50052112  1
