# generated using pymatgen
data_Al11(V2C)12
_symmetry_space_group_name_H-M   'P 1'
_cell_length_a   8.73142725
_cell_length_b   5.82381570
_cell_length_c   13.09290780
_cell_angle_alpha   90.00000000
_cell_angle_beta   90.00000000
_cell_angle_gamma   120.01069538
_symmetry_Int_Tables_number   1
_chemical_formula_structural   Al11(V2C)12
_chemical_formula_sum   'Al11 V24 C12'
_cell_volume   576.51788976
_cell_formula_units_Z   1
loop_
 _symmetry_equiv_pos_site_id
 _symmetry_equiv_pos_as_xyz
  1  'x, y, z'
loop_
 _atom_site_type_symbol
 _atom_site_label
 _atom_site_symmetry_multiplicity
 _atom_site_fract_x
 _atom_site_fract_y
 _atom_site_fract_z
 _atom_site_occupancy
  Al  Al0  1  0.22159551  0.16662481  0.25000000  1
  Al  Al1  1  0.22215795  0.66671192  0.25000000  1
  Al  Al2  1  0.11278783  0.83399938  0.75000000  1
  Al  Al3  1  0.55554878  0.16728134  0.25000000  1
  Al  Al4  1  0.44043597  0.33460946  0.75000000  1
  Al  Al5  1  0.55468753  0.66604424  0.25000000  1
  Al  Al6  1  0.43676265  0.82057403  0.75000000  1
  Al  Al7  1  0.88894564  0.16674923  0.25000000  1
  Al  Al8  1  0.78477844  0.33355466  0.75000000  1
  Al  Al9  1  0.88933307  0.66684111  0.25000000  1
  Al  Al10  1  0.78596988  0.84494141  0.75000000  1
  V  V11  1  0.22179957  0.16774899  0.91425167  1
  V  V12  1  0.11117512  0.33332139  0.08442767  1
  V  V13  1  0.11117512  0.33332139  0.41557233  1
  V  V14  1  0.22179957  0.16774899  0.58574833  1
  V  V15  1  0.22160130  0.66512162  0.91458409  1
  V  V16  1  0.11094307  0.83328221  0.08446569  1
  V  V17  1  0.11094307  0.83328221  0.41553431  1
  V  V18  1  0.22160130  0.66512162  0.58541591  1
  V  V19  1  0.55629659  0.16778935  0.91385048  1
  V  V20  1  0.44403503  0.33234466  0.08438880  1
  V  V21  1  0.44403503  0.33234466  0.41561120  1
  V  V22  1  0.55629659  0.16778935  0.58614952  1
  V  V23  1  0.55514447  0.66576496  0.91451530  1
  V  V24  1  0.44477621  0.83421008  0.08417038  1
  V  V25  1  0.44477621  0.83421008  0.41582962  1
  V  V26  1  0.55514447  0.66576496  0.58548470  1
  V  V27  1  0.88815674  0.16640624  0.91517837  1
  V  V28  1  0.77799754  0.33382615  0.08480289  1
  V  V29  1  0.77799754  0.33382615  0.41519711  1
  V  V30  1  0.88815674  0.16640624  0.58482163  1
  V  V31  1  0.88861094  0.66664129  0.91459146  1
  V  V32  1  0.77801258  0.83300750  0.08481772  1
  V  V33  1  0.77801258  0.83300750  0.41518228  1
  V  V34  1  0.88861094  0.66664129  0.58540854  1
  C  C35  1  0.99985142  -0.00011815  0.99905678  1
  C  C36  1  0.99985142  -0.00011815  0.50094322  1
  C  C37  1  0.99979254  0.50010997  0.99912007  1
  C  C38  1  0.99979254  0.50010997  0.50087993  1
  C  C39  1  0.33182750  0.99904492  0.99702299  1
  C  C40  1  0.33182750  0.99904492  0.50297701  1
  C  C41  1  0.33355635  0.50020239  0.99925758  1
  C  C42  1  0.33355635  0.50020239  0.50074242  1
  C  C43  1  0.66795206  0.00115070  0.99856975  1
  C  C44  1  0.66795206  0.00115070  0.50143025  1
  C  C45  1  0.66641432  0.49951493  0.99938656  1
  C  C46  1  0.66641432  0.49951493  0.50061344  1
