# generated using pymatgen
data_Ti3VC4
_symmetry_space_group_name_H-M   'P 1'
_cell_length_a   6.78011421
_cell_length_b   6.77565393
_cell_length_c   8.01943746
_cell_angle_alpha   75.26614566
_cell_angle_beta   64.99831077
_cell_angle_gamma   72.54105478
_symmetry_Int_Tables_number   1
_chemical_formula_structural   Ti3VC4
_chemical_formula_sum   'Ti12 V4 C16'
_cell_volume   315.02312702
_cell_formula_units_Z   4
loop_
 _symmetry_equiv_pos_site_id
 _symmetry_equiv_pos_as_xyz
  1  'x, y, z'
loop_
 _atom_site_type_symbol
 _atom_site_label
 _atom_site_symmetry_multiplicity
 _atom_site_fract_x
 _atom_site_fract_y
 _atom_site_fract_z
 _atom_site_occupancy
  C  C0  1  0.84672833  0.40335290  0.46229751  1
  C  C1  1  0.15664719  0.59305400  0.53062225  1
  C  C2  1  0.28205287  0.46468399  0.15519833  1
  C  C3  1  0.46971770  0.78088503  0.59303211  1
  C  C4  1  0.78220434  0.97076521  0.65239994  1
  C  C5  1  0.09289055  0.15682813  0.71905331  1
  C  C6  1  0.59996873  0.65097939  0.21689940  1
  C  C7  1  0.90652726  0.84434754  0.28094688  1
  C  C8  1  0.21571002  0.03459822  0.33945126  1
  C  C9  1  0.40496457  0.34206108  0.78591458  1
  C  C10  1  0.71668148  0.52932584  0.84897756  1
  C  C11  1  0.02913172  0.71715559  0.91128834  1
  C  C12  1  0.34211637  0.91033300  0.97090492  1
  C  C13  1  0.53782579  0.21897093  0.40113054  1
  C  C14  1  0.65029033  0.09908410  0.03318841  1
  C  C15  1  0.96631971  0.28348419  0.09897701  1
  V  V16  1  0.30897276  0.18992555  0.06331899  1
  V  V17  1  0.62598870  0.37495189  0.12512184  1
  V  V18  1  0.93931797  0.56138077  0.18814749  1
  V  V19  1  0.87628203  0.12400869  0.37234276  1
  Ti  Ti20  1  0.06067305  0.43702523  0.81668423  1
  Ti  Ti21  1  0.37396262  0.62594923  0.87713979  1
  Ti  Ti22  1  0.50147828  0.49794669  0.50017970  1
  Ti  Ti23  1  0.68720284  0.81529711  0.93708601  1
  Ti  Ti24  1  0.99733817  0.00314862  0.00197670  1
  Ti  Ti25  1  0.81301935  0.68543452  0.56243363  1
  Ti  Ti26  1  0.12445194  0.87504497  0.62460448  1
  Ti  Ti27  1  0.43840078  0.06365332  0.68567772  1
  Ti  Ti28  1  0.25155449  0.74802732  0.24923797  1
  Ti  Ti29  1  0.56203794  0.93634366  0.31124744  1
  Ti  Ti30  1  0.74969993  0.25065735  0.74889949  1
  Ti  Ti31  1  0.18984215  0.31129592  0.43561943  1
