# generated using pymatgen
data_Ti3WC4
_symmetry_space_group_name_H-M   'P 1'
_cell_length_a   6.86498291
_cell_length_b   6.86224966
_cell_length_c   8.11122229
_cell_angle_alpha   75.23971778
_cell_angle_beta   64.95537851
_cell_angle_gamma   72.57069756
_symmetry_Int_Tables_number   1
_chemical_formula_structural   Ti3WC4
_chemical_formula_sum   'Ti12 W4 C16'
_cell_volume   326.65191892
_cell_formula_units_Z   4
loop_
 _symmetry_equiv_pos_site_id
 _symmetry_equiv_pos_as_xyz
  1  'x, y, z'
loop_
 _atom_site_type_symbol
 _atom_site_label
 _atom_site_symmetry_multiplicity
 _atom_site_fract_x
 _atom_site_fract_y
 _atom_site_fract_z
 _atom_site_occupancy
  C  C0  1  0.84508540  0.40481544  0.46759356  1
  C  C1  1  0.15703931  0.59264665  0.53177272  1
  C  C2  1  0.28163974  0.47018969  0.15618051  1
  C  C3  1  0.46931809  0.78098645  0.59376741  1
  C  C4  1  0.78132973  0.96869067  0.65489071  1
  C  C5  1  0.09253459  0.15702175  0.71896376  1
  C  C6  1  0.59621066  0.65465562  0.21892582  1
  C  C7  1  0.90605096  0.84455016  0.28120842  1
  C  C8  1  0.21852020  0.03039884  0.34392135  1
  C  C9  1  0.40640922  0.34302034  0.78218262  1
  C  C10  1  0.71782434  0.53082591  0.84539957  1
  C  C11  1  0.03101224  0.71894241  0.90731047  1
  C  C12  1  0.34279540  0.90849214  0.96891125  1
  C  C13  1  0.53155028  0.21797333  0.40586822  1
  C  C14  1  0.65558570  0.09370783  0.03050559  1
  C  C15  1  0.96759928  0.28290519  0.09302245  1
  W  W16  1  0.31585213  0.18549705  0.05634547  1
  W  W17  1  0.61882209  0.37668078  0.12345464  1
  W  W18  1  0.94153444  0.57138349  0.18998843  1
  W  W19  1  0.87681002  0.11476205  0.37573788  1
  Ti  Ti20  1  0.06209880  0.43840761  0.81294431  1
  Ti  Ti21  1  0.37413585  0.63126801  0.87457460  1
  Ti  Ti22  1  0.49916067  0.49800318  0.50413621  1
  Ti  Ti23  1  0.68875141  0.81638550  0.93493866  1
  Ti  Ti24  1  0.99802370  0.00296783  0.99577840  1
  Ti  Ti25  1  0.81155137  0.68360964  0.56654740  1
  Ti  Ti26  1  0.12555547  0.87282385  0.62619441  1
  Ti  Ti27  1  0.43699603  0.06291881  0.68481696  1
  Ti  Ti28  1  0.25288935  0.74811358  0.25216154  1
  Ti  Ti29  1  0.55728597  0.93446751  0.31527971  1
  Ti  Ti30  1  0.75190632  0.25178827  0.74628172  1
  Ti  Ti31  1  0.18812126  0.31110042  0.44039526  1
