# generated using pymatgen
data_Ti7MoC8
_symmetry_space_group_name_H-M   'P 1'
_cell_length_a   11.86780727
_cell_length_b   11.86265495
_cell_length_c   10.61575437
_cell_angle_alpha   98.59298697
_cell_angle_beta   98.57867092
_cell_angle_gamma   62.20005535
_symmetry_Int_Tables_number   1
_chemical_formula_structural   Ti7MoC8
_chemical_formula_sum   'Ti56 Mo8 C64'
_cell_volume   1301.78048107
_cell_formula_units_Z   8
loop_
 _symmetry_equiv_pos_site_id
 _symmetry_equiv_pos_as_xyz
  1  'x, y, z'
loop_
 _atom_site_type_symbol
 _atom_site_label
 _atom_site_symmetry_multiplicity
 _atom_site_fract_x
 _atom_site_fract_y
 _atom_site_fract_z
 _atom_site_occupancy
  C  C0  1  0.81275819  0.31291561  0.68730135  1
  C  C1  1  0.43806386  0.18767184  0.68655603  1
  C  C2  1  0.18748423  0.18779430  0.56207285  1
  C  C3  1  0.93772700  0.18767878  0.43804231  1
  C  C4  1  0.68757871  0.18738310  0.31193396  1
  C  C5  1  0.18757212  0.43752531  0.68816691  1
  C  C6  1  0.93787783  0.43758837  0.56258247  1
  C  C7  1  0.68695979  0.43717424  0.43680352  1
  C  C8  1  0.93698952  0.68769071  0.68708588  1
  C  C9  1  0.68784904  0.68744775  0.56355581  1
  C  C10  1  0.68826307  0.93808451  0.68844878  1
  C  C11  1  0.56268875  0.31278281  0.56238625  1
  C  C12  1  0.31185265  0.31244778  0.43749475  1
  C  C13  1  0.06189359  0.31265423  0.31256049  1
  C  C14  1  0.81234179  0.31306441  0.18731941  1
  C  C15  1  0.56242186  0.56303690  0.68682374  1
  C  C16  1  0.31308160  0.56148643  0.56186567  1
  C  C17  1  0.06270797  0.56242219  0.43750392  1
  C  C18  1  0.81250637  0.56244491  0.31300532  1
  C  C19  1  0.31257664  0.81225311  0.68725390  1
  C  C20  1  0.06269939  0.81284251  0.56258620  1
  C  C21  1  0.81236300  0.81196111  0.43716247  1
  C  C22  1  0.06296694  0.06246302  0.68712367  1
  C  C23  1  0.81192982  0.06261073  0.56213491  1
  C  C24  1  0.43745555  0.18708657  0.18750217  1
  C  C25  1  0.18685897  0.18813856  0.06302791  1
  C  C26  1  0.93780247  0.18725887  0.93765368  1
  C  C27  1  0.68748202  0.18764502  0.81247376  1
  C  C28  1  0.43763240  0.43765753  0.31239319  1
  C  C29  1  0.18862597  0.43645796  0.18794612  1
  C  C30  1  0.93771175  0.43777943  0.06247051  1
  C  C31  1  0.68742907  0.43783948  0.93740352  1
  C  C32  1  0.43794769  0.68767179  0.43746982  1
  C  C33  1  0.18705276  0.68667078  0.31226900  1
  C  C34  1  0.93664843  0.68876575  0.18733539  1
  C  C35  1  0.68788849  0.68721520  0.06244430  1
  C  C36  1  0.43681058  0.93697786  0.56098974  1
  C  C37  1  0.18704212  0.93730047  0.43764629  1
  C  C38  1  0.93719769  0.93752668  0.31251348  1
  C  C39  1  0.68697021  0.93759200  0.18769038  1
  C  C40  1  0.56204870  0.31224400  0.06243337  1
  C  C41  1  0.31198910  0.31315436  0.93729958  1
  C  C42  1  0.06327447  0.31229777  0.81236577  1
  C  C43  1  0.56268552  0.56190355  0.18742317  1
  C  C44  1  0.31174131  0.56314078  0.06258804  1
  C  C45  1  0.06254674  0.56200856  0.93787538  1
  C  C46  1  0.81262059  0.56288110  0.81269739  1
  C  C47  1  0.56260847  0.81252595  0.31113503  1
  C  C48  1  0.31281565  0.81213910  0.18827630  1
  C  C49  1  0.06286456  0.81221617  0.06273854  1
  C  C50  1  0.81227633  0.81239233  0.93745762  1
  C  C51  1  0.56276522  0.06281406  0.43786112  1
  C  C52  1  0.31304071  0.06249207  0.31304176  1
  C  C53  1  0.06255855  0.06264831  0.18766246  1
  C  C54  1  0.81252976  0.06222921  0.06229003  1
  C  C55  1  0.43716749  0.43746240  0.81238018  1
  C  C56  1  0.43735790  0.68805602  0.93753828  1
  C  C57  1  0.18740932  0.68755988  0.81313410  1
  C  C58  1  0.43763689  0.93745092  0.06238371  1
  C  C59  1  0.18792591  0.93739619  0.93760946  1
  C  C60  1  0.93805785  0.93713634  0.81245621  1
  C  C61  1  0.56223782  0.81312611  0.81195938  1
  C  C62  1  0.56212151  0.06255776  0.93717256  1
  C  C63  1  0.31216916  0.06238378  0.81479316  1
  Mo  Mo64  1  0.25106650  0.99870217  0.62274048  1
  Mo  Mo65  1  0.50214228  0.24583409  0.37526087  1
  Mo  Mo66  1  0.62941328  0.62295262  0.37366360  1
  Mo  Mo67  1  0.62177412  0.87939958  0.49932727  1
  Mo  Mo68  1  0.49955462  0.00088116  0.75219576  1
  Mo  Mo69  1  0.99688360  0.49999329  0.25184250  1
  Mo  Mo70  1  0.12400219  0.62677403  0.12621665  1
  Mo  Mo71  1  0.24966593  0.25087805  0.75165251  1
  Ti  Ti72  1  0.62554875  0.12605426  0.62621636  1
  Ti  Ti73  1  0.99908007  0.00036625  0.50020663  1
  Ti  Ti74  1  0.75036098  0.00049712  0.37485901  1
  Ti  Ti75  1  0.50023921  0.99845710  0.24881866  1
  Ti  Ti76  1  0.99925624  0.25061822  0.62497489  1
  Ti  Ti77  1  0.75037641  0.25125674  0.50012259  1
  Ti  Ti78  1  0.75062099  0.50062989  0.62583910  1
  Ti  Ti79  1  0.50016401  0.49934166  0.49990642  1
  Ti  Ti80  1  0.50021113  0.74891800  0.62420017  1
  Ti  Ti81  1  0.37434619  0.12533207  0.49884091  1
  Ti  Ti82  1  0.12326983  0.12702406  0.37467763  1
  Ti  Ti83  1  0.87312835  0.12512820  0.24966491  1
  Ti  Ti84  1  0.62535212  0.12379550  0.12269055  1
  Ti  Ti85  1  0.37602389  0.37470815  0.62616519  1
  Ti  Ti86  1  0.12614250  0.37362871  0.50092586  1
  Ti  Ti87  1  0.87504512  0.37447679  0.37498028  1
  Ti  Ti88  1  0.62479103  0.37361636  0.24876074  1
  Ti  Ti89  1  0.12508691  0.62347677  0.62462728  1
  Ti  Ti90  1  0.87540939  0.62506766  0.50168176  1
  Ti  Ti91  1  0.87478180  0.87569623  0.62574626  1
  Ti  Ti92  1  0.24911987  0.99991438  0.12558594  1
  Ti  Ti93  1  0.00032131  0.99893188  0.00056071  1
  Ti  Ti94  1  0.75088771  0.99967424  0.87425187  1
  Ti  Ti95  1  0.24915684  0.25049642  0.24924086  1
  Ti  Ti96  1  0.99961882  0.24849271  0.12474975  1
  Ti  Ti97  1  0.75056607  0.24952907  0.99878820  1
  Ti  Ti98  1  0.50071188  0.25115408  0.87511647  1
  Ti  Ti99  1  0.25046799  0.49897628  0.37536483  1
  Ti  Ti100  1  0.74957453  0.49909572  0.12319435  1
  Ti  Ti101  1  0.49986334  0.50077736  0.00025644  1
  Ti  Ti102  1  0.25001047  0.74850567  0.49873493  1
  Ti  Ti103  1  0.99824770  0.75128870  0.37645874  1
  Ti  Ti104  1  0.75085750  0.75029014  0.24849416  1
  Ti  Ti105  1  0.50011749  0.75039786  0.12523681  1
  Ti  Ti106  1  0.37501523  0.12440468  0.00171265  1
  Ti  Ti107  1  0.12589915  0.12393221  0.87573877  1
  Ti  Ti108  1  0.87667322  0.12485547  0.75004005  1
  Ti  Ti109  1  0.37386687  0.37461947  0.12405443  1
  Ti  Ti110  1  0.12430399  0.37550304  0.00097906  1
  Ti  Ti111  1  0.87582625  0.37508100  0.87549594  1
  Ti  Ti112  1  0.62554471  0.37575216  0.75002148  1
  Ti  Ti113  1  0.37600946  0.62344020  0.25038285  1
  Ti  Ti114  1  0.87413021  0.62587006  0.99902922  1
  Ti  Ti115  1  0.62447998  0.62609758  0.87483710  1
  Ti  Ti116  1  0.37469678  0.87471160  0.37391996  1
  Ti  Ti117  1  0.12454513  0.87643959  0.25151794  1
  Ti  Ti118  1  0.87497693  0.87457327  0.12493384  1
  Ti  Ti119  1  0.62557732  0.87465440  0.99954835  1
  Ti  Ti120  1  0.25018652  0.50120979  0.87480660  1
  Ti  Ti121  1  0.00024954  0.50070839  0.75160564  1
  Ti  Ti122  1  0.25005594  0.75049677  1.00002171  1
  Ti  Ti123  1  0.00032095  0.75034036  0.87449368  1
  Ti  Ti124  1  0.75038791  0.74953530  0.74951259  1
  Ti  Ti125  1  0.37459530  0.62615328  0.74951511  1
  Ti  Ti126  1  0.37444360  0.87524376  0.87620068  1
  Ti  Ti127  1  0.12479662  0.87412298  0.74922093  1
