# generated using pymatgen
data_Ti3MoC4
_symmetry_space_group_name_H-M   'P 1'
_cell_length_a   6.86687826
_cell_length_b   6.85678075
_cell_length_c   8.10731485
_cell_angle_alpha   75.23250195
_cell_angle_beta   64.91433674
_cell_angle_gamma   72.54185513
_symmetry_Int_Tables_number   1
_chemical_formula_structural   Ti3MoC4
_chemical_formula_sum   'Ti12 Mo4 C16'
_cell_volume   326.17569409
_cell_formula_units_Z   4
loop_
 _symmetry_equiv_pos_site_id
 _symmetry_equiv_pos_as_xyz
  1  'x, y, z'
loop_
 _atom_site_type_symbol
 _atom_site_label
 _atom_site_symmetry_multiplicity
 _atom_site_fract_x
 _atom_site_fract_y
 _atom_site_fract_z
 _atom_site_occupancy
  C  C0  1  0.84471397  0.40537498  0.46899564  1
  C  C1  1  0.15678419  0.59342289  0.53145018  1
  C  C2  1  0.28111000  0.47156688  0.15673186  1
  C  C3  1  0.47001202  0.78130347  0.59338620  1
  C  C4  1  0.78065131  0.96825932  0.65627783  1
  C  C5  1  0.09225407  0.15717857  0.71942430  1
  C  C6  1  0.59532917  0.65516387  0.21900136  1
  C  C7  1  0.90636667  0.84503564  0.28073981  1
  C  C8  1  0.21955956  0.02933808  0.34487681  1
  C  C9  1  0.40694028  0.34355095  0.78084752  1
  C  C10  1  0.71795607  0.53099827  0.84426020  1
  C  C11  1  0.03184632  0.71910400  0.90580916  1
  C  C12  1  0.34263546  0.90736879  0.96889889  1
  C  C13  1  0.52958104  0.21779594  0.40676172  1
  C  C14  1  0.65743664  0.09148915  0.03021248  1
  C  C15  1  0.96737933  0.28280898  0.09225385  1
  Mo  Mo16  1  0.31600399  0.18612808  0.05822420  1
  Mo  Mo17  1  0.61363214  0.37506851  0.12463908  1
  Mo  Mo18  1  0.94416715  0.56921532  0.19102981  1
  Mo  Mo19  1  0.87919827  0.11781976  0.37116700  1
  Ti  Ti20  1  0.06169473  0.43808966  0.81435526  1
  Ti  Ti21  1  0.37384797  0.63004534  0.87495416  1
  Ti  Ti22  1  0.50063043  0.49754423  0.50227214  1
  Ti  Ti23  1  0.68874648  0.81484063  0.93644629  1
  Ti  Ti24  1  0.99843501  0.00218667  0.99620817  1
  Ti  Ti25  1  0.81155968  0.68458275  0.56620379  1
  Ti  Ti26  1  0.12520663  0.87321939  0.62580910  1
  Ti  Ti27  1  0.43782928  0.06303628  0.68546138  1
  Ti  Ti28  1  0.25207380  0.74986027  0.25159300  1
  Ti  Ti29  1  0.55782760  0.93570984  0.31512602  1
  Ti  Ti30  1  0.75108501  0.25146302  0.74660574  1
  Ti  Ti31  1  0.18750574  0.31143048  0.43997709  1
