# generated using pymatgen
data_Ti3MoC4
_symmetry_space_group_name_H-M   'P 1'
_cell_length_a   6.86636456
_cell_length_b   6.85479728
_cell_length_c   8.10696482
_cell_angle_alpha   75.25284543
_cell_angle_beta   64.91462716
_cell_angle_gamma   72.56900514
_symmetry_Int_Tables_number   1
_chemical_formula_structural   Ti3MoC4
_chemical_formula_sum   'Ti12 Mo4 C16'
_cell_volume   326.10186288
_cell_formula_units_Z   4
loop_
 _symmetry_equiv_pos_site_id
 _symmetry_equiv_pos_as_xyz
  1  'x, y, z'
loop_
 _atom_site_type_symbol
 _atom_site_label
 _atom_site_symmetry_multiplicity
 _atom_site_fract_x
 _atom_site_fract_y
 _atom_site_fract_z
 _atom_site_occupancy
  C  C0  1  0.84487860  0.40527583  0.46908818  1
  C  C1  1  0.15671654  0.59330682  0.53147791  1
  C  C2  1  0.28118548  0.47158528  0.15671614  1
  C  C3  1  0.47011903  0.78130343  0.59334614  1
  C  C4  1  0.78054677  0.96834451  0.65631606  1
  C  C5  1  0.09223877  0.15725288  0.71943240  1
  C  C6  1  0.59511293  0.65520510  0.21917062  1
  C  C7  1  0.90631919  0.84519941  0.28070786  1
  C  C8  1  0.21954248  0.02955167  0.34482859  1
  C  C9  1  0.40706727  0.34357103  0.78077008  1
  C  C10  1  0.71797154  0.53105505  0.84419737  1
  C  C11  1  0.03180732  0.71902638  0.90585056  1
  C  C12  1  0.34261847  0.90740601  0.96895712  1
  C  C13  1  0.52967544  0.21794700  0.40668244  1
  C  C14  1  0.65740200  0.09140192  0.03028548  1
  C  C15  1  0.96743840  0.28268842  0.09218982  1
  Mo  Mo16  1  0.31581446  0.18620104  0.05824675  1
  Mo  Mo17  1  0.61301519  0.37544364  0.12485130  1
  Mo  Mo18  1  0.94471360  0.56903323  0.19093871  1
  Mo  Mo19  1  0.87943184  0.11762619  0.37112758  1
  Ti  Ti20  1  0.06153846  0.43778838  0.81459406  1
  Ti  Ti21  1  0.37407526  0.62988629  0.87479667  1
  Ti  Ti22  1  0.50051056  0.49772617  0.50225200  1
  Ti  Ti23  1  0.68873847  0.81449245  0.93638018  1
  Ti  Ti24  1  0.99820894  0.00226170  0.99637559  1
  Ti  Ti25  1  0.81154867  0.68478917  0.56628456  1
  Ti  Ti26  1  0.12504921  0.87329272  0.62584473  1
  Ti  Ti27  1  0.43808050  0.06329422  0.68524929  1
  Ti  Ti28  1  0.25210722  0.74961914  0.25141316  1
  Ti  Ti29  1  0.55801085  0.93542149  0.31509066  1
  Ti  Ti30  1  0.75108123  0.25126429  0.74658557  1
  Ti  Ti31  1  0.18743534  0.31173914  0.43995246  1
