# generated using pymatgen
data_W2C
_symmetry_space_group_name_H-M   'P 1'
_cell_length_a   4.75002756
_cell_length_b   6.10605072
_cell_length_c   5.22935469
_cell_angle_alpha   90.00000000
_cell_angle_beta   90.00000000
_cell_angle_gamma   90.00000000
_symmetry_Int_Tables_number   1
_chemical_formula_structural   W2C
_chemical_formula_sum   'W8 C4'
_cell_volume   151.67172862
_cell_formula_units_Z   4
loop_
 _symmetry_equiv_pos_site_id
 _symmetry_equiv_pos_as_xyz
  1  'x, y, z'
loop_
 _atom_site_type_symbol
 _atom_site_label
 _atom_site_symmetry_multiplicity
 _atom_site_fract_x
 _atom_site_fract_y
 _atom_site_fract_z
 _atom_site_occupancy
  W  W0  1  0.24483912  0.12372612  0.08129906  1
  W  W1  1  0.74483912  0.37627388  0.91870094  1
  W  W2  1  0.75516088  0.12372612  0.41870094  1
  W  W3  1  0.25516088  0.37627388  0.58129906  1
  W  W4  1  0.75516088  0.87627388  0.91870094  1
  W  W5  1  0.25516088  0.62372612  0.08129906  1
  W  W6  1  0.24483912  0.87627388  0.58129906  1
  W  W7  1  0.74483912  0.62372612  0.41870094  1
  C  C8  1  0.00000000  0.37853066  0.25000000  1
  C  C9  1  0.50000000  0.12146934  0.75000000  1
  C  C10  1  0.00000000  0.62146934  0.75000000  1
  C  C11  1  0.50000000  0.87853066  0.25000000  1
