# generated using pymatgen
data_V2O5
_symmetry_space_group_name_H-M   'P 1'
_cell_length_a   11.62275718
_cell_length_b   4.53337235
_cell_length_c   3.56619031
_cell_angle_alpha   90.00000000
_cell_angle_beta   90.00000000
_cell_angle_gamma   90.00000000
_symmetry_Int_Tables_number   1
_chemical_formula_structural   V2O5
_chemical_formula_sum   'V4 O10'
_cell_volume   187.90358747
_cell_formula_units_Z   2
loop_
 _symmetry_equiv_pos_site_id
 _symmetry_equiv_pos_as_xyz
  1  'x, y, z'
loop_
 _atom_site_type_symbol
 _atom_site_label
 _atom_site_symmetry_multiplicity
 _atom_site_fract_x
 _atom_site_fract_y
 _atom_site_fract_z
 _atom_site_occupancy
  V  V0  1  0.14798769  0.38961294  0.00576985  1
  V  V1  1  0.35201231  0.61038706  0.50576985  1
  V  V2  1  0.85201231  0.38961294  0.00576985  1
  V  V3  1  0.64798769  0.61038706  0.50576985  1
  O  O4  1  0.14445705  0.03842677  0.00530390  1
  O  O5  1  0.35554295  0.96157323  0.50530390  1
  O  O6  1  0.85554295  0.03842677  0.00530390  1
  O  O7  1  0.64445705  0.96157323  0.50530390  1
  O  O8  1  0.31850755  0.50544759  0.00574969  1
  O  O9  1  0.18149245  0.49455241  0.50574969  1
  O  O10  1  0.68149245  0.50544759  0.00574969  1
  O  O11  1  0.81850755  0.49455241  0.50574969  1
  O  O12  1  0.00000000  0.49731539  0.00635311  1
  O  O13  1  0.50000000  0.50268461  0.50635311  1
