# generated using pymatgen
data_Ta2O5
_symmetry_space_group_name_H-M   'P 1'
_cell_length_a   12.94152553
_cell_length_b   6.92242413
_cell_length_c   5.58753076
_cell_angle_alpha   102.48435844
_cell_angle_beta   103.37138425
_cell_angle_gamma   20.81158235
_symmetry_Int_Tables_number   1
_chemical_formula_structural   Ta2O5
_chemical_formula_sum   'Ta4 O10'
_cell_volume   173.02874083
_cell_formula_units_Z   2
loop_
 _symmetry_equiv_pos_site_id
 _symmetry_equiv_pos_as_xyz
  1  'x, y, z'
loop_
 _atom_site_type_symbol
 _atom_site_label
 _atom_site_symmetry_multiplicity
 _atom_site_fract_x
 _atom_site_fract_y
 _atom_site_fract_z
 _atom_site_occupancy
  O  O0  1  0.89303624  0.21392751  0.25000000  1
  O  O1  1  0.10696376  0.78607249  0.75000000  1
  O  O2  1  0.33801932  0.10129044  0.01799818  1
  O  O3  1  0.56069024  0.10129044  0.48200182  1
  O  O4  1  0.66198068  0.89870956  0.98200182  1
  O  O5  1  0.43930976  0.89870956  0.51799818  1
  O  O6  1  0.86359661  0.86305697  0.37269002  1
  O  O7  1  0.27334642  0.86305697  0.12730998  1
  O  O8  1  0.13640339  0.13694303  0.62730998  1
  O  O9  1  0.72665358  0.13694303  0.87269002  1
  Ta  Ta10  1  0.89464829  0.49234029  0.26905432  1
  Ta  Ta11  1  0.61301142  0.49234029  0.23094568  1
  Ta  Ta12  1  0.10535171  0.50765971  0.73094568  1
  Ta  Ta13  1  0.38698858  0.50765971  0.76905432  1
