# generated using pymatgen
data_ReO2
_symmetry_space_group_name_H-M   'P 1'
_cell_length_a   5.28558225
_cell_length_b   5.21435800
_cell_length_c   5.16732451
_cell_angle_alpha   90.00000000
_cell_angle_beta   90.00000000
_cell_angle_gamma   90.00000000
_symmetry_Int_Tables_number   1
_chemical_formula_structural   ReO2
_chemical_formula_sum   'Re4 O8'
_cell_volume   142.41620756
_cell_formula_units_Z   4
loop_
 _symmetry_equiv_pos_site_id
 _symmetry_equiv_pos_as_xyz
  1  'x, y, z'
loop_
 _atom_site_type_symbol
 _atom_site_label
 _atom_site_symmetry_multiplicity
 _atom_site_fract_x
 _atom_site_fract_y
 _atom_site_fract_z
 _atom_site_occupancy
  O  O0  1  0.22191717  0.49680958  -0.00000384  1
  O  O1  1  0.22191717  0.00319042  0.00000384  1
  O  O2  1  0.77808283  0.99680958  0.50000384  1
  O  O3  1  0.77808283  0.50319042  0.49999616  1
  O  O4  1  0.77808283  0.50319042  0.00000384  1
  O  O5  1  0.77808283  0.99680958  -0.00000384  1
  O  O6  1  0.22191717  0.00319042  0.49999616  1
  O  O7  1  0.22191717  0.49680958  0.50000384  1
  Re  Re8  1  0.00376907  0.24996500  0.25000000  1
  Re  Re9  1  0.00376907  0.25003500  0.75000000  1
  Re  Re10  1  0.99623093  0.74996500  0.25000000  1
  Re  Re11  1  0.99623093  0.75003500  0.75000000  1
