# generated using pymatgen
data_Cr2O3
_symmetry_space_group_name_H-M   'P 1'
_cell_length_a   5.38575068
_cell_length_b   5.38575068
_cell_length_c   5.38575068
_cell_angle_alpha   55.72165865
_cell_angle_beta   55.72165865
_cell_angle_gamma   55.72165855
_symmetry_Int_Tables_number   1
_chemical_formula_structural   Cr2O3
_chemical_formula_sum   'Cr4 O6'
_cell_volume   99.50227203
_cell_formula_units_Z   2
loop_
 _symmetry_equiv_pos_site_id
 _symmetry_equiv_pos_as_xyz
  1  'x, y, z'
loop_
 _atom_site_type_symbol
 _atom_site_label
 _atom_site_symmetry_multiplicity
 _atom_site_fract_x
 _atom_site_fract_y
 _atom_site_fract_z
 _atom_site_occupancy
  Cr  Cr0  1  0.35027369  0.35027369  0.35027369  1
  Cr  Cr1  1  0.14972631  0.14972631  0.14972631  1
  Cr  Cr2  1  0.64972631  0.64972631  0.64972631  1
  Cr  Cr3  1  0.85027369  0.85027369  0.85027369  1
  O  O4  1  0.55156780  0.94843220  0.25000000  1
  O  O5  1  0.25000000  0.55156780  0.94843220  1
  O  O6  1  0.94843220  0.25000000  0.55156780  1
  O  O7  1  0.44843220  0.05156780  0.75000000  1
  O  O8  1  0.75000000  0.44843220  0.05156780  1
  O  O9  1  0.05156780  0.75000000  0.44843220  1
