# generated using pymatgen
data_Hf4BC3
_symmetry_space_group_name_H-M   'P 1'
_cell_length_a   9.36983597
_cell_length_b   4.69311446
_cell_length_c   4.69311446
_cell_angle_alpha   90.00000000
_cell_angle_beta   90.00000000
_cell_angle_gamma   90.00000000
_symmetry_Int_Tables_number   1
_chemical_formula_structural   Hf4BC3
_chemical_formula_sum   'Hf8 B2 C6'
_cell_volume   206.37366683
_cell_formula_units_Z   2
loop_
 _symmetry_equiv_pos_site_id
 _symmetry_equiv_pos_as_xyz
  1  'x, y, z'
loop_
 _atom_site_type_symbol
 _atom_site_label
 _atom_site_symmetry_multiplicity
 _atom_site_fract_x
 _atom_site_fract_y
 _atom_site_fract_z
 _atom_site_occupancy
  Hf  Hf0  1  0.00000000  0.00000000  0.00000000  1
  Hf  Hf1  1  0.00000000  0.50000000  0.50000000  1
  Hf  Hf2  1  0.24396655  0.00000000  0.50000000  1
  Hf  Hf3  1  0.24396655  0.50000000  0.00000000  1
  Hf  Hf4  1  0.50000000  0.00000000  0.00000000  1
  Hf  Hf5  1  0.50000000  0.50000000  0.50000000  1
  Hf  Hf6  1  0.75603345  0.00000000  0.50000000  1
  Hf  Hf7  1  0.75603345  0.50000000  0.00000000  1
  C  C8  1  0.00000000  0.00000000  0.50000000  1
  C  C9  1  0.00000000  0.50000000  0.00000000  1
  C  C10  1  0.24698539  0.00000000  0.00000000  1
  C  C11  1  0.24698539  0.50000000  0.50000000  1
  C  C12  1  0.75301461  0.00000000  0.00000000  1
  C  C13  1  0.75301461  0.50000000  0.50000000  1
  B  B14  1  0.50000000  0.00000000  0.50000000  1
  B  B15  1  0.50000000  0.50000000  0.00000000  1
