# generated using pymatgen
data_Hf4B3C
_symmetry_space_group_name_H-M   'P 1'
_cell_length_a   9.55941658
_cell_length_b   4.78482274
_cell_length_c   4.78629739
_cell_angle_alpha   90.00000000
_cell_angle_beta   90.00000000
_cell_angle_gamma   90.00000000
_symmetry_Int_Tables_number   1
_chemical_formula_structural   Hf4B3C
_chemical_formula_sum   'Hf8 B6 C2'
_cell_volume   218.92578746
_cell_formula_units_Z   2
loop_
 _symmetry_equiv_pos_site_id
 _symmetry_equiv_pos_as_xyz
  1  'x, y, z'
loop_
 _atom_site_type_symbol
 _atom_site_label
 _atom_site_symmetry_multiplicity
 _atom_site_fract_x
 _atom_site_fract_y
 _atom_site_fract_z
 _atom_site_occupancy
  Hf  Hf0  1  0.00141443  0.00000000  0.00000000  1
  Hf  Hf1  1  0.98888196  0.50000000  0.50000000  1
  Hf  Hf2  1  0.24858557  0.00000000  0.50000000  1
  Hf  Hf3  1  0.26111804  0.50000000  0.00000000  1
  Hf  Hf4  1  0.49978736  0.00000000  0.00000000  1
  Hf  Hf5  1  0.50858243  0.50000000  0.50000000  1
  Hf  Hf6  1  0.75021264  0.00000000  0.50000000  1
  Hf  Hf7  1  0.74141757  0.50000000  0.00000000  1
  B  B8  1  0.99949119  0.00000000  0.50000000  1
  B  B9  1  0.00009413  0.50000000  0.00000000  1
  B  B10  1  0.25050881  0.00000000  0.00000000  1
  B  B11  1  0.24990587  0.50000000  0.50000000  1
  B  B12  1  0.49976092  0.00000000  0.50000000  1
  B  B13  1  0.75023908  0.00000000  0.00000000  1
  C  C14  1  0.50198854  0.50000000  0.00000000  1
  C  C15  1  0.74801146  0.50000000  0.50000000  1
