# generated using pymatgen
data_Hf3MoC4
_symmetry_space_group_name_H-M   'P 1'
_cell_length_a   9.15228065
_cell_length_b   4.56316900
_cell_length_c   4.57779138
_cell_angle_alpha   90.00000000
_cell_angle_beta   90.00000000
_cell_angle_gamma   90.00000000
_symmetry_Int_Tables_number   1
_chemical_formula_structural   Hf3MoC4
_chemical_formula_sum   'Hf6 Mo2 C8'
_cell_volume   191.18414782
_cell_formula_units_Z   2
loop_
 _symmetry_equiv_pos_site_id
 _symmetry_equiv_pos_as_xyz
  1  'x, y, z'
loop_
 _atom_site_type_symbol
 _atom_site_label
 _atom_site_symmetry_multiplicity
 _atom_site_fract_x
 _atom_site_fract_y
 _atom_site_fract_z
 _atom_site_occupancy
  Hf  Hf0  1  0.00290896  0.00000000  0.00000000  1
  Hf  Hf1  1  0.00147046  0.50000000  0.50000000  1
  Hf  Hf2  1  0.25186607  0.00000000  0.50000000  1
  Hf  Hf3  1  0.49813393  0.00000000  0.00000000  1
  Hf  Hf4  1  0.74709104  0.00000000  0.50000000  1
  Hf  Hf5  1  0.74852954  0.50000000  0.00000000  1
  Mo  Mo6  1  0.25590542  0.50000000  0.00000000  1
  Mo  Mo7  1  0.49409458  0.50000000  0.50000000  1
  C  C8  1  0.00358819  0.00000000  0.50000000  1
  C  C9  1  0.00289939  0.50000000  0.00000000  1
  C  C10  1  0.25281226  0.00000000  0.00000000  1
  C  C11  1  0.25470865  0.50000000  0.50000000  1
  C  C12  1  0.49718774  0.00000000  0.50000000  1
  C  C13  1  0.49529135  0.50000000  0.00000000  1
  C  C14  1  0.74641181  0.00000000  0.00000000  1
  C  C15  1  0.74710061  0.50000000  0.50000000  1
