# generated using pymatgen
data_Hf3VC4
_symmetry_space_group_name_H-M   'P 1'
_cell_length_a   9.04622444
_cell_length_b   4.55731494
_cell_length_c   4.55731494
_cell_angle_alpha   90.00000000
_cell_angle_beta   90.00000000
_cell_angle_gamma   90.00000000
_symmetry_Int_Tables_number   1
_chemical_formula_structural   Hf3VC4
_chemical_formula_sum   'Hf6 V2 C8'
_cell_volume   187.88211608
_cell_formula_units_Z   2
loop_
 _symmetry_equiv_pos_site_id
 _symmetry_equiv_pos_as_xyz
  1  'x, y, z'
loop_
 _atom_site_type_symbol
 _atom_site_label
 _atom_site_symmetry_multiplicity
 _atom_site_fract_x
 _atom_site_fract_y
 _atom_site_fract_z
 _atom_site_occupancy
  V  V0  1  0.00000000  0.00000000  0.00000000  1
  V  V1  1  0.50000000  0.50000000  0.50000000  1
  Hf  Hf2  1  0.00000000  0.50000000  0.50000000  1
  Hf  Hf3  1  0.25000000  0.00000000  0.50000000  1
  Hf  Hf4  1  0.25000000  0.50000000  0.00000000  1
  Hf  Hf5  1  0.50000000  0.00000000  0.00000000  1
  Hf  Hf6  1  0.75000000  0.00000000  0.50000000  1
  Hf  Hf7  1  0.75000000  0.50000000  0.00000000  1
  C  C8  1  0.00000000  0.00000000  0.50000000  1
  C  C9  1  0.00000000  0.50000000  0.00000000  1
  C  C10  1  0.24452493  0.00000000  0.00000000  1
  C  C11  1  0.25547507  0.50000000  0.50000000  1
  C  C12  1  0.50000000  0.00000000  0.50000000  1
  C  C13  1  0.50000000  0.50000000  0.00000000  1
  C  C14  1  0.75547507  0.00000000  0.00000000  1
  C  C15  1  0.74452493  0.50000000  0.50000000  1
