# generated using pymatgen
data_Nb3Al2VC2
_symmetry_space_group_name_H-M   'P 1'
_cell_length_a   6.14883330
_cell_length_b   6.14869908
_cell_length_c   13.73788085
_cell_angle_alpha   90.00313958
_cell_angle_beta   89.99643348
_cell_angle_gamma   119.99503227
_symmetry_Int_Tables_number   1
_chemical_formula_structural   Nb3Al2VC2
_chemical_formula_sum   'Nb12 Al8 V4 C8'
_cell_volume   449.82964381
_cell_formula_units_Z   4
loop_
 _symmetry_equiv_pos_site_id
 _symmetry_equiv_pos_as_xyz
  1  'x, y, z'
loop_
 _atom_site_type_symbol
 _atom_site_label
 _atom_site_symmetry_multiplicity
 _atom_site_fract_x
 _atom_site_fract_y
 _atom_site_fract_z
 _atom_site_occupancy
  Al  Al0  1  0.32635865  0.15565103  0.24674585  1
  Al  Al1  1  0.17227698  0.32597173  0.75367908  1
  Al  Al2  1  0.32730812  0.67128870  0.24637235  1
  Al  Al3  1  0.14917187  0.83334867  0.75363274  1
  Al  Al4  1  0.83494362  0.16678691  0.24858341  1
  Al  Al5  1  0.66706469  0.35014854  0.75406933  1
  Al  Al6  1  0.84511409  0.67339523  0.24637939  1
  Al  Al7  1  0.67887528  0.82232195  0.75133575  1
  V  V8  1  0.33312158  0.16543924  0.91609264  1
  V  V9  1  0.16632001  0.83382317  0.07904838  1
  V  V10  1  0.83448304  0.66700794  0.91726357  1
  V  V11  1  0.83299762  0.66655726  0.58408297  1
  Nb  Nb12  1  0.16720002  0.33296171  0.08582481  1
  Nb  Nb13  1  0.16679861  0.33383825  0.41216187  1
  Nb  Nb14  1  0.33377020  0.16680545  0.59118781  1
  Nb  Nb15  1  0.33315701  0.66750728  0.90849250  1
  Nb  Nb16  1  0.16590063  0.83280492  0.41309657  1
  Nb  Nb17  1  0.33319764  0.66697787  0.59360696  1
  Nb  Nb18  1  0.83294562  0.16629911  0.90937726  1
  Nb  Nb19  1  0.66605845  0.33368420  0.08682636  1
  Nb  Nb20  1  0.66697936  0.33425345  0.41120864  1
  Nb  Nb21  1  0.83294613  0.16702899  0.59340560  1
  Nb  Nb22  1  0.66689842  0.83279538  0.08600115  1
  Nb  Nb23  1  0.66658405  0.83281786  0.41141641  1
  C  C24  1  0.00575616  0.99485235  0.99592361  1
  C  C25  1  0.99597580  0.99492278  0.50419898  1
  C  C26  1  0.00035287  0.50832371  0.99810331  1
  C  C27  1  0.99685343  0.50190251  0.50454475  1
  C  C28  1  0.49130457  0.99991913  0.99810450  1
  C  C29  1  0.50132915  0.99997913  0.50184911  1
  C  C30  1  0.50242727  0.49693041  0.99336232  1
  C  C31  1  0.50552928  0.50365541  0.50402205  1
