# generated using pymatgen
data_Nb2AlC
_symmetry_space_group_name_H-M   'P 1'
_cell_length_a   6.23603837
_cell_length_b   6.23603836
_cell_length_c   13.93321001
_cell_angle_alpha   90.00000000
_cell_angle_beta   90.00000000
_cell_angle_gamma   119.99999991
_symmetry_Int_Tables_number   1
_chemical_formula_structural   Nb2AlC
_chemical_formula_sum   'Nb16 Al8 C8'
_cell_volume   469.24469522
_cell_formula_units_Z   8
loop_
 _symmetry_equiv_pos_site_id
 _symmetry_equiv_pos_as_xyz
  1  'x, y, z'
loop_
 _atom_site_type_symbol
 _atom_site_label
 _atom_site_symmetry_multiplicity
 _atom_site_fract_x
 _atom_site_fract_y
 _atom_site_fract_z
 _atom_site_occupancy
  Al  Al0  1  0.33333335  0.16666667  0.25000000  1
  Al  Al1  1  0.16666667  0.33333335  0.75000000  1
  Al  Al2  1  0.33333335  0.66666667  0.25000000  1
  Al  Al3  1  0.16666667  0.83333335  0.75000000  1
  Al  Al4  1  0.83333335  0.16666667  0.25000000  1
  Al  Al5  1  0.66666667  0.33333335  0.75000000  1
  Al  Al6  1  0.83333335  0.66666667  0.25000000  1
  Al  Al7  1  0.66666667  0.83333335  0.75000000  1
  Nb  Nb8  1  0.33333335  0.16666667  0.91149119  1
  Nb  Nb9  1  0.16666667  0.33333335  0.08850882  1
  Nb  Nb10  1  0.16666667  0.33333335  0.41149119  1
  Nb  Nb11  1  0.33333335  0.16666667  0.58850881  1
  Nb  Nb12  1  0.33333335  0.66666667  0.91149119  1
  Nb  Nb13  1  0.16666667  0.83333335  0.08850882  1
  Nb  Nb14  1  0.16666667  0.83333335  0.41149119  1
  Nb  Nb15  1  0.33333335  0.66666667  0.58850881  1
  Nb  Nb16  1  0.83333335  0.16666667  0.91149119  1
  Nb  Nb17  1  0.66666667  0.33333335  0.08850882  1
  Nb  Nb18  1  0.66666667  0.33333335  0.41149119  1
  Nb  Nb19  1  0.83333335  0.16666667  0.58850881  1
  Nb  Nb20  1  0.83333335  0.66666667  0.91149119  1
  Nb  Nb21  1  0.66666667  0.83333335  0.08850882  1
  Nb  Nb22  1  0.66666667  0.83333335  0.41149119  1
  Nb  Nb23  1  0.83333335  0.66666667  0.58850881  1
  C  C24  1  0.00000000  -0.00000000  0.00000000  1
  C  C25  1  -0.00000000  -0.00000000  0.50000000  1
  C  C26  1  0.00000000  0.50000000  0.00000000  1
  C  C27  1  0.00000000  0.50000000  0.50000000  1
  C  C28  1  0.50000000  -0.00000000  0.00000000  1
  C  C29  1  0.50000000  0.00000000  0.50000000  1
  C  C30  1  0.50000000  0.50000000  -0.00000000  1
  C  C31  1  0.50000000  0.50000000  0.50000000  1
