# generated using pymatgen
data_AlV2C
_symmetry_space_group_name_H-M   'P 1'
_cell_length_a   5.81332037
_cell_length_b   5.81332036
_cell_length_c   13.13424487
_cell_angle_alpha   90.00000000
_cell_angle_beta   90.00000000
_cell_angle_gamma   119.99999988
_symmetry_Int_Tables_number   1
_chemical_formula_structural   AlV2C
_chemical_formula_sum   'Al8 V16 C8'
_cell_volume   384.40077567
_cell_formula_units_Z   8
loop_
 _symmetry_equiv_pos_site_id
 _symmetry_equiv_pos_as_xyz
  1  'x, y, z'
loop_
 _atom_site_type_symbol
 _atom_site_label
 _atom_site_symmetry_multiplicity
 _atom_site_fract_x
 _atom_site_fract_y
 _atom_site_fract_z
 _atom_site_occupancy
  Al  Al0  1  0.33333335  0.16666667  0.25000000  1
  Al  Al1  1  0.16666667  0.33333335  0.75000000  1
  Al  Al2  1  0.33333335  0.66666667  0.25000000  1
  Al  Al3  1  0.16666667  0.83333335  0.75000000  1
  Al  Al4  1  0.83333335  0.16666667  0.25000000  1
  Al  Al5  1  0.66666667  0.33333335  0.75000000  1
  Al  Al6  1  0.83333335  0.66666667  0.25000000  1
  Al  Al7  1  0.66666667  0.83333335  0.75000000  1
  V  V8  1  0.33333335  0.16666667  0.91470448  1
  V  V9  1  0.16666667  0.33333335  0.08529553  1
  V  V10  1  0.16666667  0.33333335  0.41470448  1
  V  V11  1  0.33333335  0.16666667  0.58529552  1
  V  V12  1  0.33333335  0.66666667  0.91470448  1
  V  V13  1  0.16666667  0.83333335  0.08529553  1
  V  V14  1  0.16666667  0.83333335  0.41470448  1
  V  V15  1  0.33333335  0.66666667  0.58529552  1
  V  V16  1  0.83333335  0.16666667  0.91470448  1
  V  V17  1  0.66666667  0.33333335  0.08529553  1
  V  V18  1  0.66666667  0.33333335  0.41470448  1
  V  V19  1  0.83333335  0.16666667  0.58529552  1
  V  V20  1  0.83333335  0.66666667  0.91470448  1
  V  V21  1  0.66666667  0.83333335  0.08529553  1
  V  V22  1  0.66666667  0.83333335  0.41470448  1
  V  V23  1  0.83333335  0.66666667  0.58529552  1
  C  C24  1  0.00000000  0.00000000  -0.00000000  1
  C  C25  1  0.00000000  0.00000000  0.50000000  1
  C  C26  1  -0.00000000  0.50000000  0.00000000  1
  C  C27  1  0.00000000  0.50000000  0.50000000  1
  C  C28  1  0.50000000  0.00000000  -0.00000000  1
  C  C29  1  0.50000000  0.00000000  0.50000000  1
  C  C30  1  0.50000000  0.50000000  -0.00000000  1
  C  C31  1  0.50000000  0.50000000  0.50000000  1
