# generated using pymatgen
data_NbAlVC
_symmetry_space_group_name_H-M   'P 1'
_cell_length_a   6.04786631
_cell_length_b   6.04368876
_cell_length_c   13.57356045
_cell_angle_alpha   90.02813710
_cell_angle_beta   89.98556263
_cell_angle_gamma   120.00137329
_symmetry_Int_Tables_number   1
_chemical_formula_structural   NbAlVC
_chemical_formula_sum   'Nb8 Al8 V8 C8'
_cell_volume   429.65772437
_cell_formula_units_Z   8
loop_
 _symmetry_equiv_pos_site_id
 _symmetry_equiv_pos_as_xyz
  1  'x, y, z'
loop_
 _atom_site_type_symbol
 _atom_site_label
 _atom_site_symmetry_multiplicity
 _atom_site_fract_x
 _atom_site_fract_y
 _atom_site_fract_z
 _atom_site_occupancy
  Al  Al0  1  0.33243918  0.14933071  0.24609090  1
  Al  Al1  1  0.16007132  0.32300288  0.75127218  1
  Al  Al2  1  0.34367297  0.68698229  0.24874349  1
  Al  Al3  1  0.16163229  0.84082874  0.75664501  1
  Al  Al4  1  0.81714729  0.14916564  0.24533880  1
  Al  Al5  1  0.66429544  0.33304286  0.75401176  1
  Al  Al6  1  0.83885592  0.67813766  0.24565576  1
  Al  Al7  1  0.67632648  0.84058206  0.75141774  1
  V  V8  1  0.33461246  0.16635821  0.92047836  1
  V  V9  1  0.16638401  0.83387077  0.08427251  1
  V  V10  1  0.16635349  0.83226394  0.41435561  1
  V  V11  1  0.66637856  0.33464246  0.08601918  1
  V  V12  1  0.83310061  0.16612933  0.58118156  1
  V  V13  1  0.83364573  0.66619619  0.91970747  1
  V  V14  1  0.66733404  0.83194817  0.08372515  1
  V  V15  1  0.66700108  0.83352911  0.41409665  1
  Nb  Nb16  1  0.16850500  0.33376971  0.09212821  1
  Nb  Nb17  1  0.16579078  0.33261482  0.40466252  1
  Nb  Nb18  1  0.33303964  0.16589175  0.58722656  1
  Nb  Nb19  1  0.33416403  0.66726903  0.91312195  1
  Nb  Nb20  1  0.33349388  0.66744038  0.58995769  1
  Nb  Nb21  1  0.83270296  0.16648076  0.91501856  1
  Nb  Nb22  1  0.66766076  0.33322558  0.40670139  1
  Nb  Nb23  1  0.83377316  0.66723490  0.58825269  1
  C  C24  1  0.00111410  0.99193651  0.00222943  1
  C  C25  1  0.99439304  0.99786552  0.49508209  1
  C  C26  1  0.99470550  0.50621706  0.00500947  1
  C  C27  1  0.00103073  0.49917635  0.49791169  1
  C  C28  1  0.49688875  0.00287774  0.00706503  1
  C  C29  1  0.50313273  0.99653167  0.49557076  1
  C  C30  1  0.50855617  0.49936326  0.00200171  1
  C  C31  1  0.50179815  0.50609420  0.49504814  1
