# generated using pymatgen
data_Nb3Al2VC2
_symmetry_space_group_name_H-M   'P 1'
_cell_length_a   6.14754129
_cell_length_b   6.14922043
_cell_length_c   13.73807307
_cell_angle_alpha   90.00288255
_cell_angle_beta   89.99884487
_cell_angle_gamma   119.98897000
_symmetry_Int_Tables_number   1
_chemical_formula_structural   Nb3Al2VC2
_chemical_formula_sum   'Nb12 Al8 V4 C8'
_cell_volume   449.80701891
_cell_formula_units_Z   4
loop_
 _symmetry_equiv_pos_site_id
 _symmetry_equiv_pos_as_xyz
  1  'x, y, z'
loop_
 _atom_site_type_symbol
 _atom_site_label
 _atom_site_symmetry_multiplicity
 _atom_site_fract_x
 _atom_site_fract_y
 _atom_site_fract_z
 _atom_site_occupancy
  Al  Al0  1  0.34489981  0.17302436  0.25185075  1
  Al  Al1  1  0.17891533  0.32246894  0.74947728  1
  Al  Al2  1  0.33484437  0.66672104  0.24962899  1
  Al  Al3  1  0.16721591  0.85049371  0.75220080  1
  Al  Al4  1  0.82711817  0.17086420  0.25180666  1
  Al  Al5  1  0.64928142  0.33330447  0.75263286  1
  Al  Al6  1  0.82631832  0.65561425  0.25221074  1
  Al  Al7  1  0.67238546  0.82633026  0.75192641  1
  V  V8  1  0.33309637  0.16634966  0.91591961  1
  V  V9  1  0.33424535  0.16712087  0.58271381  1
  V  V10  1  0.66576348  0.33264679  0.41945967  1
  V  V11  1  0.83376179  0.66682708  0.91474533  1
  Nb  Nb12  1  0.16669823  0.33264084  0.08670559  1
  Nb  Nb13  1  0.16675105  0.33303962  0.41202285  1
  Nb  Nb14  1  0.33293943  0.66627518  0.90749085  1
  Nb  Nb15  1  0.16603972  0.83377652  0.08743385  1
  Nb  Nb16  1  0.16719681  0.83428984  0.41185084  1
  Nb  Nb17  1  0.33294917  0.66702786  0.59158997  1
  Nb  Nb18  1  0.83389234  0.16681587  0.90732027  1
  Nb  Nb19  1  0.66635394  0.33375042  0.08557182  1
  Nb  Nb20  1  0.83270171  0.16751984  0.59235060  1
  Nb  Nb21  1  0.66739429  0.83322612  0.08649827  1
  Nb  Nb22  1  0.66646473  0.83374211  0.41285175  1
  Nb  Nb23  1  0.83320993  0.66559813  0.58995479  1
  C  C24  1  0.00240460  0.99701018  0.99341552  1
  C  C25  1  0.00564380  0.00371326  0.50400799  1
  C  C26  1  0.99793504  0.50334505  0.99535749  1
  C  C27  1  0.99456613  0.49655237  0.49909649  1
  C  C28  1  0.49694675  0.00174565  0.99535113  1
  C  C29  1  0.50025092  0.00834583  0.50182092  1
  C  C30  1  0.50251175  0.49803232  0.99325405  1
  C  C31  1  0.49930413  0.49178761  0.50148206  1
