# generated using pymatgen
data_NbAl2V3C2
_symmetry_space_group_name_H-M   'P 1'
_cell_length_a   5.93833063
_cell_length_b   5.94134958
_cell_length_c   13.35221284
_cell_angle_alpha   89.99999999
_cell_angle_beta   90.02206453
_cell_angle_gamma   120.01681857
_symmetry_Int_Tables_number   1
_chemical_formula_structural   NbAl2V3C2
_chemical_formula_sum   'Nb4 Al8 V12 C8'
_cell_volume   407.90562020
_cell_formula_units_Z   4
loop_
 _symmetry_equiv_pos_site_id
 _symmetry_equiv_pos_as_xyz
  1  'x, y, z'
loop_
 _atom_site_type_symbol
 _atom_site_label
 _atom_site_symmetry_multiplicity
 _atom_site_fract_x
 _atom_site_fract_y
 _atom_site_fract_z
 _atom_site_occupancy
  Al  Al0  1  0.31478048  0.15739023  0.24912016  1
  Al  Al1  1  0.16012081  0.32183275  0.75292710  1
  Al  Al2  1  0.32464054  0.66232026  0.25347179  1
  Al  Al3  1  0.16012081  0.83828808  0.75292710  1
  Al  Al4  1  0.84884244  0.16626773  0.25236640  1
  Al  Al5  1  0.66739806  0.33369905  0.74915508  1
  Al  Al6  1  0.84884244  0.68257469  0.25236640  1
  Al  Al7  1  0.67821369  0.83910686  0.75336064  1
  V  V8  1  0.33270939  0.16635469  0.91297301  1
  V  V9  1  0.16763584  0.33433365  0.08053603  1
  V  V10  1  0.16608251  0.33226110  0.41830071  1
  V  V11  1  0.33230084  0.16615041  0.58546967  1
  V  V12  1  0.33188798  0.66594398  0.91091953  1
  V  V13  1  0.16763584  0.83330221  0.08053603  1
  V  V14  1  0.16608251  0.83382144  0.41830071  1
  V  V15  1  0.83419500  0.16790203  0.91383821  1
  V  V16  1  0.83344847  0.16598780  0.58533074  1
  V  V17  1  0.83419500  0.66629296  0.91383821  1
  V  V18  1  0.66699078  0.83349541  0.41710956  1
  V  V19  1  0.83344847  0.66746066  0.58533074  1
  C  C20  1  0.00586446  0.00293223  0.99555465  1
  C  C21  1  0.99938320  0.99969160  0.50160231  1
  C  C22  1  0.00590917  0.50295458  0.99557254  1
  C  C23  1  0.99913306  0.49956653  0.50149579  1
  C  C24  1  0.49410878  0.99731087  0.99254674  1
  C  C25  1  0.50019344  0.00015885  0.50145520  1
  C  C26  1  0.49410878  0.49679791  0.99254674  1
  C  C27  1  0.50019344  0.50003459  0.50145520  1
  Nb  Nb28  1  0.33332253  0.66666126  0.59344206  1
  Nb  Nb29  1  0.66692206  0.33346104  0.08964457  1
  Nb  Nb30  1  0.66569564  0.33284783  0.40901262  1
  Nb  Nb31  1  0.66559385  0.83279694  0.08749383  1
