# generated using pymatgen
data_NbAlVC
_symmetry_space_group_name_H-M   'P 1'
_cell_length_a   6.05122546
_cell_length_b   6.05122545
_cell_length_c   13.54631159
_cell_angle_alpha   90.00000000
_cell_angle_beta   90.00000000
_cell_angle_gamma   119.99999993
_symmetry_Int_Tables_number   1
_chemical_formula_structural   NbAlVC
_chemical_formula_sum   'Nb8 Al8 V8 C8'
_cell_volume   429.57436946
_cell_formula_units_Z   8
loop_
 _symmetry_equiv_pos_site_id
 _symmetry_equiv_pos_as_xyz
  1  'x, y, z'
loop_
 _atom_site_type_symbol
 _atom_site_label
 _atom_site_symmetry_multiplicity
 _atom_site_fract_x
 _atom_site_fract_y
 _atom_site_fract_z
 _atom_site_occupancy
  Al  Al0  1  0.33856521  0.17713038  0.25892837  1
  Al  Al1  1  0.15718811  0.32859407  0.74031298  1
  Al  Al2  1  0.33856521  0.66143481  0.25892837  1
  Al  Al3  1  0.16666667  0.83333335  0.73755965  1
  Al  Al4  1  0.83333335  0.16666667  0.26248324  1
  Al  Al5  1  0.67140595  0.32859407  0.74031298  1
  Al  Al6  1  0.82286964  0.66143481  0.25892837  1
  Al  Al7  1  0.67140595  0.84281191  0.74031298  1
  Nb  Nb8  1  0.33325406  0.16650809  0.90497743  1
  Nb  Nb9  1  0.16561809  0.33280906  0.09062150  1
  Nb  Nb10  1  0.33325406  0.66674596  0.90497743  1
  Nb  Nb11  1  0.16666667  0.83333335  0.09193446  1
  Nb  Nb12  1  0.16666667  0.83333335  0.41549456  1
  Nb  Nb13  1  0.66719096  0.33280906  0.09062150  1
  Nb  Nb14  1  0.83349193  0.66674596  0.90497743  1
  Nb  Nb15  1  0.66719096  0.83438193  0.09062150  1
  V  V16  1  0.16695591  0.33347797  0.42192276  1
  V  V17  1  0.33436387  0.16872770  0.58266264  1
  V  V18  1  0.33436387  0.66563615  0.58266264  1
  V  V19  1  0.83333335  0.16666667  0.91265339  1
  V  V20  1  0.66652205  0.33347797  0.42192276  1
  V  V21  1  0.83333335  0.16666667  0.58190569  1
  V  V22  1  0.66652205  0.83304411  0.42192276  1
  V  V23  1  0.83127232  0.66563615  0.58266264  1
  C  C24  1  0.99735330  0.00264670  0.99576328  1
  C  C25  1  0.99730365  0.00269635  0.50410648  1
  C  C26  1  0.99735330  0.49470659  0.99576328  1
  C  C27  1  0.99730365  0.49460728  0.50410648  1
  C  C28  1  0.50529341  0.00264670  0.99576328  1
  C  C29  1  0.50539272  0.00269635  0.50410648  1
  C  C30  1  0.50000000  0.50000000  0.99830449  1
  C  C31  1  0.50000000  0.50000000  0.50177819  1
