# generated using pymatgen
data_NbAlVC
_symmetry_space_group_name_H-M   'P 1'
_cell_length_a   6.04983455
_cell_length_b   6.04959152
_cell_length_c   13.55403201
_cell_angle_alpha   90.01300754
_cell_angle_beta   90.01082361
_cell_angle_gamma   120.03053364
_symmetry_Int_Tables_number   1
_chemical_formula_structural   NbAlVC
_chemical_formula_sum   'Nb8 Al8 V8 C8'
_cell_volume   429.47208917
_cell_formula_units_Z   8
loop_
 _symmetry_equiv_pos_site_id
 _symmetry_equiv_pos_as_xyz
  1  'x, y, z'
loop_
 _atom_site_type_symbol
 _atom_site_label
 _atom_site_symmetry_multiplicity
 _atom_site_fract_x
 _atom_site_fract_y
 _atom_site_fract_z
 _atom_site_occupancy
  Al  Al0  1  0.34252876  0.17078417  0.24487343  1
  Al  Al1  1  0.16163464  0.32156255  0.75574331  1
  Al  Al2  1  0.34340645  0.67239695  0.24528259  1
  Al  Al3  1  0.17280593  0.84425112  0.75874872  1
  Al  Al4  1  0.82167933  0.16030423  0.24206901  1
  Al  Al5  1  0.65975149  0.32079470  0.75533230  1
  Al  Al6  1  0.82238652  0.66199962  0.24248455  1
  Al  Al7  1  0.67113989  0.84332565  0.75834499  1
  V  V8  1  0.33535446  0.16780683  0.91538132  1
  V  V9  1  0.33343643  0.16720237  0.58897465  1
  V  V10  1  0.33500163  0.66715173  0.91345933  1
  V  V11  1  0.83205580  0.16603647  0.91470857  1
  V  V12  1  0.66760196  0.33417325  0.07662445  1
  V  V13  1  0.83391887  0.16743683  0.58915573  1
  V  V14  1  0.83188457  0.66570169  0.91274736  1
  V  V15  1  0.66713695  0.83324234  0.07646850  1
  Nb  Nb16  1  0.16708510  0.33385533  0.08356936  1
  Nb  Nb17  1  0.16586379  0.33256843  0.41102062  1
  Nb  Nb18  1  0.16662973  0.83302844  0.08342272  1
  Nb  Nb19  1  0.16645642  0.83387107  0.41191986  1
  Nb  Nb20  1  0.33335479  0.66700372  0.59642091  1
  Nb  Nb21  1  0.66667711  0.33298013  0.41271585  1
  Nb  Nb22  1  0.66741280  0.83435185  0.41357528  1
  Nb  Nb23  1  0.83383709  0.66727033  0.59654880  1
  C  C24  1  0.99400529  0.99647747  0.99143843  1
  C  C25  1  0.00371088  0.00647850  0.50864826  1
  C  C26  1  0.99465065  0.49776114  0.99106756  1
  C  C27  1  0.99776557  0.49454785  0.50617828  1
  C  C28  1  0.50568912  0.00231266  0.99419215  1
  C  C29  1  0.50234643  0.00575502  0.50875550  1
  C  C30  1  0.50637536  0.50365806  0.99384288  1
  C  C31  1  0.49641643  0.49390978  0.50628479  1
