# generated using pymatgen
data_NbAl2V3C2
_symmetry_space_group_name_H-M   'P 1'
_cell_length_a   5.93356739
_cell_length_b   5.93346001
_cell_length_c   13.38969588
_cell_angle_alpha   89.99999998
_cell_angle_beta   90.00325100
_cell_angle_gamma   119.99940130
_symmetry_Int_Tables_number   1
_chemical_formula_structural   NbAl2V3C2
_chemical_formula_sum   'Nb4 Al8 V12 C8'
_cell_volume   408.25156903
_cell_formula_units_Z   4
loop_
 _symmetry_equiv_pos_site_id
 _symmetry_equiv_pos_as_xyz
  1  'x, y, z'
loop_
 _atom_site_type_symbol
 _atom_site_label
 _atom_site_symmetry_multiplicity
 _atom_site_fract_x
 _atom_site_fract_y
 _atom_site_fract_z
 _atom_site_occupancy
  Al  Al0  1  0.32683472  0.17118121  0.25012036  1
  Al  Al1  1  0.16281644  0.32420276  0.74605455  1
  Al  Al2  1  0.33776709  0.66308717  0.24567579  1
  Al  Al3  1  0.17143299  0.84485632  0.74942954  1
  Al  Al4  1  0.83718358  0.16138632  0.25394545  1
  Al  Al5  1  0.66223293  0.32532011  0.75432421  1
  Al  Al6  1  0.82856703  0.67342332  0.25057046  1
  Al  Al7  1  0.67316530  0.84434652  0.74987964  1
  V  V8  1  0.33176244  0.16581731  0.91660128  1
  V  V9  1  0.16570166  0.33166227  0.08355233  1
  V  V10  1  0.16668421  0.33343528  0.41570793  1
  V  V11  1  0.33442883  0.16825181  0.58341484  1
  V  V12  1  0.16595606  0.83368693  0.08485156  1
  V  V13  1  0.33384193  0.66542482  0.58528361  1
  V  V14  1  0.83429836  0.16596060  0.91644768  1
  V  V15  1  0.66615809  0.33158292  0.41471639  1
  V  V16  1  0.83331581  0.16675106  0.58429207  1
  V  V17  1  0.83404396  0.66773085  0.91514845  1
  V  V18  1  0.66823758  0.83405490  0.08339873  1
  V  V19  1  0.66557119  0.83382301  0.41658516  1
  C  C20  1  0.00000000  0.99916902  0.00000000  1
  C  C21  1  0.00000000  0.00861387  0.50000000  1
  C  C22  1  0.00000000  0.50062646  0.00000000  1
  C  C23  1  0.00000000  0.49043829  0.50000000  1
  C  C24  1  0.49937587  0.99932207  0.00000528  1
  C  C25  1  0.50601943  0.00288929  0.50292401  1
  C  C26  1  0.50062413  0.49994620  0.99999472  1
  C  C27  1  0.49398057  0.49686985  0.49707599  1
  Nb  Nb28  1  0.33278569  0.66562492  0.90873072  1
  Nb  Nb29  1  0.16877953  0.83322753  0.41015506  1
  Nb  Nb30  1  0.66721433  0.33283926  0.09126929  1
  Nb  Nb31  1  0.83122049  0.66444799  0.58984494  1
