# generated using pymatgen
data_Nb3Al2VC2
_symmetry_space_group_name_H-M   'P 1'
_cell_length_a   6.14727412
_cell_length_b   6.14727411
_cell_length_c   13.73924896
_cell_angle_alpha   89.99398103
_cell_angle_beta   90.00601897
_cell_angle_gamma   119.94049835
_symmetry_Int_Tables_number   1
_chemical_formula_structural   Nb3Al2VC2
_chemical_formula_sum   'Nb12 Al8 V4 C8'
_cell_volume   449.90297131
_cell_formula_units_Z   4
loop_
 _symmetry_equiv_pos_site_id
 _symmetry_equiv_pos_as_xyz
  1  'x, y, z'
loop_
 _atom_site_type_symbol
 _atom_site_label
 _atom_site_symmetry_multiplicity
 _atom_site_fract_x
 _atom_site_fract_y
 _atom_site_fract_z
 _atom_site_occupancy
  Al  Al0  1  0.32726435  0.17273567  0.25460240  1
  Al  Al1  1  0.17273567  0.32726435  0.74539760  1
  Al  Al2  1  0.34008307  0.65991695  0.25761136  1
  Al  Al3  1  0.15991695  0.84008307  0.74238864  1
  Al  Al4  1  0.84008307  0.15991695  0.25761136  1
  Al  Al5  1  0.65991695  0.34008307  0.74238864  1
  Al  Al6  1  0.82726435  0.67273567  0.25460240  1
  Al  Al7  1  0.67273567  0.82726435  0.74539760  1
  Nb  Nb8  1  0.33365484  0.16634518  0.91011993  1
  Nb  Nb9  1  0.16634518  0.33365484  0.08988008  1
  Nb  Nb10  1  0.33293893  0.66706109  0.90786201  1
  Nb  Nb11  1  0.16706109  0.83293893  0.09213800  1
  Nb  Nb12  1  0.16603166  0.83396836  0.41210011  1
  Nb  Nb13  1  0.33396836  0.66603166  0.58789989  1
  Nb  Nb14  1  0.83293893  0.16706109  0.90786201  1
  Nb  Nb15  1  0.66706109  0.33293893  0.09213800  1
  Nb  Nb16  1  0.66603166  0.33396836  0.41210011  1
  Nb  Nb17  1  0.83396836  0.16603166  0.58789989  1
  Nb  Nb18  1  0.83365484  0.66634518  0.91011993  1
  Nb  Nb19  1  0.66634518  0.83365484  0.08988008  1
  V  V20  1  0.16717064  0.33282938  0.41973638  1
  V  V21  1  0.33282938  0.16717064  0.58026362  1
  V  V22  1  0.66717064  0.83282938  0.41973638  1
  V  V23  1  0.83282938  0.66717064  0.58026362  1
  C  C24  1  -0.00000000  -0.00000000  0.00000000  1
  C  C25  1  -0.00000000  -0.00000000  0.50000000  1
  C  C26  1  -0.00000000  0.50000000  0.00000000  1
  C  C27  1  -0.00000000  0.50000000  0.50000000  1
  C  C28  1  0.50000000  -0.00000000  0.00000000  1
  C  C29  1  0.50000000  -0.00000000  0.50000000  1
  C  C30  1  0.50000000  0.50000000  0.00000000  1
  C  C31  1  0.50000000  0.50000000  0.50000000  1
