# generated using pymatgen
data_NbAl2V3C2
_symmetry_space_group_name_H-M   'P 1'
_cell_length_a   5.93558716
_cell_length_b   5.93543486
_cell_length_c   13.35914017
_cell_angle_alpha   90.01906063
_cell_angle_beta   89.98105845
_cell_angle_gamma   119.98230668
_symmetry_Int_Tables_number   1
_chemical_formula_structural   NbAl2V3C2
_chemical_formula_sum   'Nb4 Al8 V12 C8'
_cell_volume   407.66435449
_cell_formula_units_Z   4
loop_
 _symmetry_equiv_pos_site_id
 _symmetry_equiv_pos_as_xyz
  1  'x, y, z'
loop_
 _atom_site_type_symbol
 _atom_site_label
 _atom_site_symmetry_multiplicity
 _atom_site_fract_x
 _atom_site_fract_y
 _atom_site_fract_z
 _atom_site_occupancy
  Al  Al0  1  0.32416993  0.16103043  0.25441662  1
  Al  Al1  1  0.16223274  0.33705891  0.74496854  1
  Al  Al2  1  0.33319273  0.66783630  0.25127400  1
  Al  Al3  1  0.18141661  0.83370116  0.74560042  1
  Al  Al4  1  0.83701493  0.16166037  0.25478935  1
  Al  Al5  1  0.66656314  0.31855458  0.74596559  1
  Al  Al6  1  0.83834064  0.67600498  0.25488100  1
  Al  Al7  1  0.65844140  0.84248629  0.74875343  1
  Nb  Nb8  1  0.33192733  0.16638793  0.91097090  1
  Nb  Nb9  1  0.66753834  0.33315000  0.09354278  1
  Nb  Nb10  1  0.83403713  0.66749712  0.90907311  1
  Nb  Nb11  1  0.83263616  0.66685001  0.58817162  1
  V  V12  1  0.16620785  0.33415858  0.08798822  1
  V  V13  1  0.16676676  0.33379520  0.41421725  1
  V  V14  1  0.33311453  0.16733084  0.58127956  1
  V  V15  1  0.33355546  0.66600484  0.91706292  1
  V  V16  1  0.16698032  0.83251651  0.08710713  1
  V  V17  1  0.16814669  0.83416092  0.41524041  1
  V  V18  1  0.33310698  0.66639098  0.58024154  1
  V  V19  1  0.83462600  0.16589918  0.91775837  1
  V  V20  1  0.66567517  0.33218565  0.41351572  1
  V  V21  1  0.83339849  0.16702748  0.58013323  1
  V  V22  1  0.66607057  0.83371200  0.08784459  1
  V  V23  1  0.66536836  0.83395281  0.41510969  1
  C  C24  1  0.99665348  0.00205273  0.00727613  1
  C  C25  1  0.00293132  0.00578075  0.49571348  1
  C  C26  1  0.00867904  0.50018804  0.00156765  1
  C  C27  1  0.00187399  0.49724884  0.49546882  1
  C  C28  1  0.50010178  0.99110214  0.00181576  1
  C  C29  1  0.49996186  0.00098523  0.49818689  1
  C  C30  1  0.49477591  0.50655432  0.00457243  1
  C  C31  1  0.49449463  0.49673514  0.49549286  1
