# generated using pymatgen
data_Hf2BC
_symmetry_space_group_name_H-M   'P 1'
_cell_length_a   9.44465726
_cell_length_b   4.73798454
_cell_length_c   4.73798454
_cell_angle_alpha   90.00000000
_cell_angle_beta   90.00000000
_cell_angle_gamma   90.00000000
_symmetry_Int_Tables_number   1
_chemical_formula_structural   Hf2BC
_chemical_formula_sum   'Hf8 B4 C4'
_cell_volume   212.01836490
_cell_formula_units_Z   4
loop_
 _symmetry_equiv_pos_site_id
 _symmetry_equiv_pos_as_xyz
  1  'x, y, z'
loop_
 _atom_site_type_symbol
 _atom_site_label
 _atom_site_symmetry_multiplicity
 _atom_site_fract_x
 _atom_site_fract_y
 _atom_site_fract_z
 _atom_site_occupancy
  Hf  Hf0  1  0.00000000  0.00000000  -0.00000000  1
  Hf  Hf1  1  0.00000000  0.50000000  0.50000000  1
  Hf  Hf2  1  0.25782957  0.00000000  0.50000000  1
  Hf  Hf3  1  0.25782957  0.50000000  0.00000000  1
  Hf  Hf4  1  0.50000000  0.00000000  -0.00000000  1
  Hf  Hf5  1  0.50000000  0.50000000  0.50000000  1
  Hf  Hf6  1  0.74217043  -0.00000000  0.50000000  1
  Hf  Hf7  1  0.74217043  0.50000000  -0.00000000  1
  B  B8  1  0.00000000  0.00000000  0.50000000  1
  B  B9  1  0.00000000  0.50000000  -0.00000000  1
  B  B10  1  0.25011723  -0.00000000  -0.00000000  1
  B  B11  1  0.74988277  0.00000000  0.00000000  1
  C  C12  1  0.25328540  0.50000000  0.50000000  1
  C  C13  1  0.50000000  0.00000000  0.50000000  1
  C  C14  1  0.50000000  0.50000000  -0.00000000  1
  C  C15  1  0.74671460  0.50000000  0.50000000  1
