# generated using pymatgen
data_Al7OsN8
_symmetry_space_group_name_H-M   'P 1'
_cell_length_a   6.29619607
_cell_length_b   6.34210778
_cell_length_c   10.08703174
_cell_angle_alpha   89.71829900
_cell_angle_beta   89.99970049
_cell_angle_gamma   119.76085683
_symmetry_Int_Tables_number   1
_chemical_formula_structural   Al7OsN8
_chemical_formula_sum   'Al14 Os2 N16'
_cell_volume   349.65554554
_cell_formula_units_Z   2
loop_
 _symmetry_equiv_pos_site_id
 _symmetry_equiv_pos_as_xyz
  1  'x, y, z'
loop_
 _atom_site_type_symbol
 _atom_site_label
 _atom_site_symmetry_multiplicity
 _atom_site_fract_x
 _atom_site_fract_y
 _atom_site_fract_z
 _atom_site_occupancy
  Al  Al0  1  0.18769992  0.34575487  0.25895606  1
  Al  Al1  1  0.32983245  0.15965772  0.00245851  1
  Al  Al2  1  0.16473913  0.32933614  0.74748399  1
  Al  Al3  1  0.33076196  0.16153302  0.50373478  1
  Al  Al4  1  0.16734049  0.83468442  0.25477417  1
  Al  Al5  1  0.32628207  0.66019808  0.00382266  1
  Al  Al6  1  0.16425846  0.82852734  0.75102681  1
  Al  Al7  1  0.33297252  0.66505762  0.49992077  1
  Al  Al8  1  0.65806996  0.34574593  0.25895434  1
  Al  Al9  1  0.66459835  0.32933526  0.74748089  1
  Al  Al10  1  0.82908933  0.15818361  0.49745775  1
  Al  Al11  1  0.83390879  0.66019734  0.00382322  1
  Al  Al12  1  0.66219781  0.82440337  0.74347194  1
  Al  Al13  1  0.83206823  0.66505690  0.49992019  1
  Os  Os14  1  0.81780864  0.13560336  0.00029509  1
  Os  Os15  1  0.70141194  0.90281192  0.22163099  1
  N  N16  1  0.16749541  0.33181147  0.44567501  1
  N  N17  1  0.33355387  0.16709511  0.19327501  1
  N  N18  1  0.17483836  0.33531538  0.93856277  1
  N  N19  1  0.33019953  0.16040017  0.69259241  1
  N  N20  1  0.16641799  0.83285300  0.44321535  1
  N  N21  1  0.32692220  0.66267628  0.19321376  1
  N  N22  1  0.16536255  0.83073126  0.94251021  1
  N  N23  1  0.32801981  0.66129395  0.69022402  1
  N  N24  1  0.66430971  0.33180970  0.44567435  1
  N  N25  1  0.87084359  0.24166222  0.18601129  1
  N  N26  1  0.66048649  0.33531111  0.93856143  1
  N  N27  1  0.83030057  0.16059749  0.69113248  1
  N  N28  1  0.66372352  0.82746180  0.44460363  1
  N  N29  1  0.83575633  0.66266642  0.19321159  1
  N  N30  1  0.64546400  0.79093380  0.93210240  1
  N  N31  1  0.83326604  0.66129395  0.69022220  1
