# generated using pymatgen
data_Hf3SiC4
_symmetry_space_group_name_H-M   'P 1'
_cell_length_a   8.91369163
_cell_length_b   4.58760089
_cell_length_c   4.62402840
_cell_angle_alpha   90.00000000
_cell_angle_beta   90.00000000
_cell_angle_gamma   90.00000000
_symmetry_Int_Tables_number   1
_chemical_formula_structural   Hf3SiC4
_chemical_formula_sum   'Hf6 Si2 C8'
_cell_volume   189.08789479
_cell_formula_units_Z   2
loop_
 _symmetry_equiv_pos_site_id
 _symmetry_equiv_pos_as_xyz
  1  'x, y, z'
loop_
 _atom_site_type_symbol
 _atom_site_label
 _atom_site_symmetry_multiplicity
 _atom_site_fract_x
 _atom_site_fract_y
 _atom_site_fract_z
 _atom_site_occupancy
  Si  Si0  1  0.99708701  0.00000000  0.00000000  1
  Si  Si1  1  0.75291299  0.50000000  0.00000000  1
  Hf  Hf2  1  0.99442601  0.50000000  0.50000000  1
  Hf  Hf3  1  0.24703668  0.00000000  0.50000000  1
  Hf  Hf4  1  0.23995046  0.50000000  0.00000000  1
  Hf  Hf5  1  0.51004954  0.00000000  0.00000000  1
  Hf  Hf6  1  0.50296332  0.50000000  0.50000000  1
  Hf  Hf7  1  0.75557399  0.00000000  0.50000000  1
  C  C8  1  0.99931519  0.00000000  0.50000000  1
  C  C9  1  0.97964880  0.50000000  0.00000000  1
  C  C10  1  0.23538932  0.00000000  0.00000000  1
  C  C11  1  0.24674815  0.50000000  0.50000000  1
  C  C12  1  0.50325185  0.00000000  0.50000000  1
  C  C13  1  0.51461068  0.50000000  0.00000000  1
  C  C14  1  0.77035120  0.00000000  0.00000000  1
  C  C15  1  0.75068481  0.50000000  0.50000000  1
