# generated using pymatgen
data_Hf3TaC4
_symmetry_space_group_name_H-M   'P 1'
_cell_length_a   9.19858960
_cell_length_b   4.59529180
_cell_length_c   4.60166552
_cell_angle_alpha   90.00000000
_cell_angle_beta   90.00000000
_cell_angle_gamma   90.00000000
_symmetry_Int_Tables_number   1
_chemical_formula_structural   Hf3TaC4
_chemical_formula_sum   'Hf6 Ta2 C8'
_cell_volume   194.51333733
_cell_formula_units_Z   2
loop_
 _symmetry_equiv_pos_site_id
 _symmetry_equiv_pos_as_xyz
  1  'x, y, z'
loop_
 _atom_site_type_symbol
 _atom_site_label
 _atom_site_symmetry_multiplicity
 _atom_site_fract_x
 _atom_site_fract_y
 _atom_site_fract_z
 _atom_site_occupancy
  Hf  Hf0  1  0.99938054  0.00000000  0.00000000  1
  Hf  Hf1  1  0.99934296  0.50000000  0.50000000  1
  Hf  Hf2  1  0.25061946  0.00000000  0.50000000  1
  Hf  Hf3  1  0.25065704  0.50000000  0.00000000  1
  Hf  Hf4  1  0.50028469  0.00000000  0.00000000  1
  Hf  Hf5  1  0.74971531  0.00000000  0.50000000  1
  C  C6  1  0.99877935  0.00000000  0.50000000  1
  C  C7  1  0.99508867  0.50000000  0.00000000  1
  C  C8  1  0.25122065  0.00000000  0.00000000  1
  C  C9  1  0.25491133  0.50000000  0.50000000  1
  C  C10  1  0.50113045  0.00000000  0.50000000  1
  C  C11  1  0.50395451  0.50000000  0.00000000  1
  C  C12  1  0.74886955  0.00000000  0.00000000  1
  C  C13  1  0.74604549  0.50000000  0.50000000  1
  Ta  Ta14  1  0.49995121  0.50000000  0.50000000  1
  Ta  Ta15  1  0.75004879  0.50000000  0.00000000  1
