# generated using pymatgen
data_Hf3TiC4
_symmetry_space_group_name_H-M   'P 1'
_cell_length_a   9.15108143
_cell_length_b   4.58346957
_cell_length_c   4.58700556
_cell_angle_alpha   90.00000000
_cell_angle_beta   90.00000000
_cell_angle_gamma   90.00000000
_symmetry_Int_Tables_number   1
_chemical_formula_structural   Hf3TiC4
_chemical_formula_sum   'Hf6 Ti2 C8'
_cell_volume   192.39600009
_cell_formula_units_Z   2
loop_
 _symmetry_equiv_pos_site_id
 _symmetry_equiv_pos_as_xyz
  1  'x, y, z'
loop_
 _atom_site_type_symbol
 _atom_site_label
 _atom_site_symmetry_multiplicity
 _atom_site_fract_x
 _atom_site_fract_y
 _atom_site_fract_z
 _atom_site_occupancy
  Ti  Ti0  1  0.00349532  0.00000000  0.00000000  1
  Ti  Ti1  1  0.24650468  0.00000000  0.50000000  1
  Hf  Hf2  1  0.00279866  0.50000000  0.50000000  1
  Hf  Hf3  1  0.24720134  0.50000000  0.00000000  1
  Hf  Hf4  1  0.49685385  0.00000000  0.00000000  1
  Hf  Hf5  1  0.49723987  0.50000000  0.50000000  1
  Hf  Hf6  1  0.75314615  0.00000000  0.50000000  1
  Hf  Hf7  1  0.75276013  0.50000000  0.00000000  1
  C  C8  1  0.00612195  0.00000000  0.50000000  1
  C  C9  1  0.00124444  0.50000000  0.00000000  1
  C  C10  1  0.24387805  0.00000000  0.00000000  1
  C  C11  1  0.24875556  0.50000000  0.50000000  1
  C  C12  1  0.49486194  0.00000000  0.50000000  1
  C  C13  1  0.49834052  0.50000000  0.00000000  1
  C  C14  1  0.75513806  0.00000000  0.00000000  1
  C  C15  1  0.75165948  0.50000000  0.50000000  1
