# generated using pymatgen
data_Hf3WC4
_symmetry_space_group_name_H-M   'P 1'
_cell_length_a   9.13739605
_cell_length_b   4.57483808
_cell_length_c   4.55778938
_cell_angle_alpha   90.00000000
_cell_angle_beta   90.00000000
_cell_angle_gamma   90.00000000
_symmetry_Int_Tables_number   1
_chemical_formula_structural   Hf3WC4
_chemical_formula_sum   'Hf6 W2 C8'
_cell_volume   190.52520118
_cell_formula_units_Z   2
loop_
 _symmetry_equiv_pos_site_id
 _symmetry_equiv_pos_as_xyz
  1  'x, y, z'
loop_
 _atom_site_type_symbol
 _atom_site_label
 _atom_site_symmetry_multiplicity
 _atom_site_fract_x
 _atom_site_fract_y
 _atom_site_fract_z
 _atom_site_occupancy
  Hf  Hf0  1  0.00117527  0.00000000  0.00000000  1
  Hf  Hf1  1  0.24882473  0.50000000  0.00000000  1
  Hf  Hf2  1  0.49775213  0.00000000  0.00000000  1
  Hf  Hf3  1  0.49907197  0.50000000  0.50000000  1
  Hf  Hf4  1  0.75092803  0.00000000  0.50000000  1
  Hf  Hf5  1  0.75224787  0.50000000  0.00000000  1
  W  W6  1  0.00167558  0.50000000  0.50000000  1
  W  W7  1  0.24832442  0.00000000  0.50000000  1
  C  C8  1  0.00567725  0.00000000  0.50000000  1
  C  C9  1  0.00238465  0.50000000  0.00000000  1
  C  C10  1  0.24761535  0.00000000  0.00000000  1
  C  C11  1  0.24432275  0.50000000  0.50000000  1
  C  C12  1  0.49458650  0.00000000  0.50000000  1
  C  C13  1  0.49687963  0.50000000  0.00000000  1
  C  C14  1  0.75312037  0.00000000  0.00000000  1
  C  C15  1  0.75541350  0.50000000  0.50000000  1
