# generated using pymatgen
data_Hf3NbC4
_symmetry_space_group_name_H-M   'P 1'
_cell_length_a   9.20592972
_cell_length_b   4.59833341
_cell_length_c   4.60433520
_cell_angle_alpha   90.00000000
_cell_angle_beta   90.00000000
_cell_angle_gamma   90.00000000
_symmetry_Int_Tables_number   1
_chemical_formula_structural   Hf3NbC4
_chemical_formula_sum   'Hf6 Nb2 C8'
_cell_volume   194.91041473
_cell_formula_units_Z   2
loop_
 _symmetry_equiv_pos_site_id
 _symmetry_equiv_pos_as_xyz
  1  'x, y, z'
loop_
 _atom_site_type_symbol
 _atom_site_label
 _atom_site_symmetry_multiplicity
 _atom_site_fract_x
 _atom_site_fract_y
 _atom_site_fract_z
 _atom_site_occupancy
  Hf  Hf0  1  0.99924971  0.00000000  0.00000000  1
  Hf  Hf1  1  0.99900568  0.50000000  0.50000000  1
  Hf  Hf2  1  0.25075029  0.00000000  0.50000000  1
  Hf  Hf3  1  0.25099432  0.50000000  0.00000000  1
  Hf  Hf4  1  0.50055349  0.50000000  0.50000000  1
  Hf  Hf5  1  0.74944651  0.50000000  0.00000000  1
  C  C6  1  0.99646015  0.00000000  0.50000000  1
  C  C7  1  0.99855020  0.50000000  0.00000000  1
  C  C8  1  0.25353985  0.00000000  0.00000000  1
  C  C9  1  0.25144980  0.50000000  0.50000000  1
  C  C10  1  0.50320832  0.00000000  0.50000000  1
  C  C11  1  0.50125203  0.50000000  0.00000000  1
  C  C12  1  0.74679168  0.00000000  0.00000000  1
  C  C13  1  0.74874797  0.50000000  0.50000000  1
  Nb  Nb14  1  0.50080481  0.00000000  0.00000000  1
  Nb  Nb15  1  0.74919519  0.00000000  0.50000000  1
