# generated using pymatgen
data_Al7SiN8
_symmetry_space_group_name_H-M   'P 1'
_cell_length_a   5.79003723
_cell_length_b   5.79003724
_cell_length_c   8.21923355
_cell_angle_alpha   89.96148581
_cell_angle_beta   90.03851430
_cell_angle_gamma   89.90896013
_symmetry_Int_Tables_number   1
_chemical_formula_structural   Al7SiN8
_chemical_formula_sum   'Al14 Si2 N16'
_cell_volume   275.54547885
_cell_formula_units_Z   2
loop_
 _symmetry_equiv_pos_site_id
 _symmetry_equiv_pos_as_xyz
  1  'x, y, z'
loop_
 _atom_site_type_symbol
 _atom_site_label
 _atom_site_symmetry_multiplicity
 _atom_site_fract_x
 _atom_site_fract_y
 _atom_site_fract_z
 _atom_site_occupancy
  Si  Si0  1  0.49557912  0.50442088  0.51080098  1
  Si  Si1  1  0.25442088  0.74557912  0.23919902  1
  N  N2  1  0.75020382  0.75008656  0.50098192  1
  N  N3  1  0.75028233  0.24971767  0.50152828  1
  N  N4  1  0.25218911  0.74781089  0.50862087  1
  N  N5  1  0.24991344  0.24979618  0.50098192  1
  N  N6  1  0.49781089  0.50218911  0.24137913  1
  N  N7  1  0.50008656  0.00020382  0.24901808  1
  N  N8  1  0.75038612  0.75041204  0.99887858  1
  N  N9  1  0.74957840  0.25042160  0.99707144  1
  N  N10  1  0.99979618  0.49991344  0.24901808  1
  N  N11  1  0.99971767  0.00028233  0.24847172  1
  N  N12  1  0.25004956  0.74995044  0.00188336  1
  N  N13  1  0.24958796  0.24961388  0.99887858  1
  N  N14  1  0.49995044  0.50004956  0.74811664  1
  N  N15  1  0.50041204  0.00038612  0.75112142  1
  N  N16  1  0.99961388  0.49958796  0.75112142  1
  N  N17  1  0.00042160  0.99957840  0.75292856  1
  Al  Al18  1  0.75213914  0.24786086  0.74982380  1
  Al  Al19  1  0.75264512  0.75251149  0.75158879  1
  Al  Al20  1  0.24748851  0.24735488  0.75158879  1
  Al  Al21  1  0.24788789  0.75211211  0.75221589  1
  Al  Al22  1  0.49967339  0.00030827  0.50063322  1
  Al  Al23  1  0.74835032  0.25164968  0.25054305  1
  Al  Al24  1  0.75030827  0.74967339  0.24936678  1
  Al  Al25  1  0.00164968  0.99835032  0.49945695  1
  Al  Al26  1  0.99969173  0.50032661  0.50063322  1
  Al  Al27  1  0.25032661  0.24969173  0.24936678  1
  Al  Al28  1  0.50251149  0.00264512  0.99841121  1
  Al  Al29  1  0.50211211  0.49788789  0.99778411  1
  Al  Al30  1  0.99786086  0.00213914  0.00017620  1
  Al  Al31  1  0.99735488  0.49748851  0.99841121  1
