# generated using pymatgen
data_NbAl7N8
_symmetry_space_group_name_H-M   'P 1'
_cell_length_a   5.84765153
_cell_length_b   5.84765153
_cell_length_c   8.28472760
_cell_angle_alpha   89.51179857
_cell_angle_beta   90.48820143
_cell_angle_gamma   89.90058536
_symmetry_Int_Tables_number   1
_chemical_formula_structural   NbAl7N8
_chemical_formula_sum   'Nb2 Al14 N16'
_cell_volume   283.27546519
_cell_formula_units_Z   2
loop_
 _symmetry_equiv_pos_site_id
 _symmetry_equiv_pos_as_xyz
  1  'x, y, z'
loop_
 _atom_site_type_symbol
 _atom_site_label
 _atom_site_symmetry_multiplicity
 _atom_site_fract_x
 _atom_site_fract_y
 _atom_site_fract_z
 _atom_site_occupancy
  Nb  Nb0  1  0.48459361  0.51540639  0.48543023  1
  Nb  Nb1  1  0.26540639  0.73459361  0.26456977  1
  N  N2  1  0.75763936  0.76080630  0.49963421  1
  N  N3  1  0.75569876  0.24430124  0.50333528  1
  N  N4  1  0.23107211  0.76892789  0.52087090  1
  N  N5  1  0.23919370  0.24236064  0.49963421  1
  N  N6  1  0.51892789  0.48107211  0.22912910  1
  N  N7  1  0.51080630  0.00763936  0.25036579  1
  N  N8  1  0.75250109  0.75081750  0.99943023  1
  N  N9  1  0.75323404  0.24676596  0.99582262  1
  N  N10  1  0.99236064  0.48919370  0.25036579  1
  N  N11  1  0.99430124  0.00569876  0.24666472  1
  N  N12  1  0.25041127  0.74958873  0.99232646  1
  N  N13  1  0.24918250  0.24749891  0.99943023  1
  N  N14  1  0.49958873  0.50041127  0.75767354  1
  N  N15  1  0.50081750  0.00250109  0.75056977  1
  N  N16  1  0.99749891  0.49918250  0.75056977  1
  N  N17  1  0.99676596  0.00323404  0.75417738  1
  Al  Al18  1  0.74937583  0.25062417  0.75258417  1
  Al  Al19  1  0.75104846  0.75208808  0.75331654  1
  Al  Al20  1  0.24791192  0.24895154  0.75331654  1
  Al  Al21  1  0.24730110  0.75269890  0.75493528  1
  Al  Al22  1  0.50434789  0.00849705  0.50516422  1
  Al  Al23  1  0.75455930  0.24544070  0.24553941  1
  Al  Al24  1  0.75849705  0.75434789  0.24483578  1
  Al  Al25  1  0.99544070  0.00455930  0.50446059  1
  Al  Al26  1  0.99150295  0.49565211  0.50516422  1
  Al  Al27  1  0.24565211  0.24150295  0.24483578  1
  Al  Al28  1  0.50208808  0.00104846  0.99668346  1
  Al  Al29  1  0.50269890  0.49730110  0.99506472  1
  Al  Al30  1  0.00062417  0.99937583  0.99741583  1
  Al  Al31  1  0.99895154  0.49791192  0.99668346  1
