# generated using pymatgen
data_Al31CrN32
_symmetry_space_group_name_H-M   'P 1'
_cell_length_a   11.30877846
_cell_length_b   11.30877986
_cell_length_c   10.02659072
_cell_angle_alpha   90.00260379
_cell_angle_beta   89.99739310
_cell_angle_gamma   147.82582174
_symmetry_Int_Tables_number   1
_chemical_formula_structural   Al31CrN32
_chemical_formula_sum   'Al31 Cr1 N32'
_cell_volume   682.81044715
_cell_formula_units_Z   1
loop_
 _symmetry_equiv_pos_site_id
 _symmetry_equiv_pos_as_xyz
  1  'x, y, z'
loop_
 _atom_site_type_symbol
 _atom_site_label
 _atom_site_symmetry_multiplicity
 _atom_site_fract_x
 _atom_site_fract_y
 _atom_site_fract_z
 _atom_site_occupancy
  Al  Al0  1  0.54165047  0.95834937  0.99851524  1
  Al  Al1  1  0.41572804  0.58303908  0.99810933  1
  Al  Al2  1  0.29173820  0.20826166  0.99857513  1
  Al  Al3  1  0.91696086  0.08427191  0.99810932  1
  Al  Al4  1  0.79222744  0.70777240  0.99810646  1
  Al  Al5  1  0.66652605  0.33295678  0.99852325  1
  Al  Al6  1  0.16704307  0.83347380  0.99852326  1
  Al  Al7  1  0.04133550  0.45866442  0.99849843  1
  Al  Al8  1  0.54164646  0.95835342  0.49835328  1
  Al  Al9  1  0.41418372  0.58178883  0.49738446  1
  Al  Al10  1  0.29173637  0.20826348  0.49813469  1
  Al  Al11  1  0.91821106  0.08581620  0.49738448  1
  Al  Al12  1  0.79254343  0.70745637  0.49775750  1
  Al  Al13  1  0.66642703  0.33292610  0.49841551  1
  Al  Al14  1  0.16707375  0.83357282  0.49841549  1
  Al  Al15  1  0.04137431  0.45862553  0.49878162  1
  Al  Al16  1  0.33133534  0.66648902  0.74878065  1
  Al  Al17  1  0.20871615  0.29128414  0.74940661  1
  Al  Al18  1  0.08583956  0.91749531  0.74887930  1
  Al  Al19  1  0.58250477  0.41416051  0.74887930  1
  Al  Al20  1  0.45875886  0.04124121  0.74837513  1
  Al  Al21  1  0.95766403  0.54233603  0.74835065  1
  Al  Al22  1  0.83351113  0.16866483  0.74878065  1
  Al  Al23  1  0.33308957  0.66680883  0.24810346  1
  Al  Al24  1  0.20846774  0.29153233  0.24766624  1
  Al  Al25  1  0.08375071  0.91683618  0.24804797  1
  Al  Al26  1  0.70838610  0.79161402  0.24900536  1
  Al  Al27  1  0.58316388  0.41624935  0.24804796  1
  Al  Al28  1  0.45836032  0.04163973  0.24838823  1
  Al  Al29  1  0.95827534  0.54172476  0.24846258  1
  Al  Al30  1  0.83319125  0.16691052  0.24810346  1
  Cr  Cr31  1  0.70858539  0.79141501  0.74467548  1
  N  N32  1  0.54161083  0.95838905  0.18921866  1
  N  N33  1  0.41702578  0.58377362  0.18951915  1
  N  N34  1  0.29170902  0.20829085  0.18911320  1
  N  N35  1  0.91622631  0.08297415  0.18951914  1
  N  N36  1  0.79161767  0.70838223  0.18957323  1
  N  N37  1  0.66665137  0.33323260  0.18926601  1
  N  N38  1  0.16676729  0.83334853  0.18926601  1
  N  N39  1  0.04152643  0.45847349  0.18922459  1
  N  N40  1  0.54172243  0.95827747  0.68917724  1
  N  N41  1  0.40601432  0.57679600  0.68773244  1
  N  N42  1  0.29181918  0.20818069  0.68923814  1
  N  N43  1  0.92320408  0.09398589  0.68773245  1
  N  N44  1  0.79587767  0.70412199  0.68815318  1
  N  N45  1  0.66551427  0.33131841  0.68923381  1
  N  N46  1  0.16868142  0.83448558  0.68923380  1
  N  N47  1  0.04035290  0.45964710  0.68950760  1
  N  N48  1  0.33275519  0.66652250  0.93966403  1
  N  N49  1  0.20836329  0.29163689  0.93996848  1
  N  N50  1  0.08408850  0.91696327  0.93966335  1
  N  N51  1  0.70861435  0.79138587  0.94100392  1
  N  N52  1  0.58303680  0.41591157  0.93966335  1
  N  N53  1  0.45846923  0.04153081  0.93941392  1
  N  N54  1  0.95810625  0.54189387  0.93941353  1
  N  N55  1  0.83347761  0.16724494  0.93966404  1
  N  N56  1  0.33286535  0.66672123  0.43873094  1
  N  N57  1  0.20855906  0.29144105  0.43828018  1
  N  N58  1  0.08416241  0.91714288  0.43870849  1
  N  N59  1  0.70842805  0.79157208  0.44184583  1
  N  N60  1  0.58285717  0.41583764  0.43870847  1
  N  N61  1  0.45843099  0.04156907  0.43908393  1
  N  N62  1  0.95818008  0.54182000  0.43920746  1
  N  N63  1  0.83327884  0.16713473  0.43873093  1
