# generated using pymatgen
data_Ti7SiN8
_symmetry_space_group_name_H-M   'P 1'
_cell_length_a   6.92349470
_cell_length_b   6.92482823
_cell_length_c   8.47619935
_cell_angle_alpha   89.74661969
_cell_angle_beta   90.00000000
_cell_angle_gamma   119.99362997
_symmetry_Int_Tables_number   1
_chemical_formula_structural   Ti7SiN8
_chemical_formula_sum   'Ti14 Si2 N16'
_cell_volume   351.95600110
_cell_formula_units_Z   2
loop_
 _symmetry_equiv_pos_site_id
 _symmetry_equiv_pos_as_xyz
  1  'x, y, z'
loop_
 _atom_site_type_symbol
 _atom_site_label
 _atom_site_symmetry_multiplicity
 _atom_site_fract_x
 _atom_site_fract_y
 _atom_site_fract_z
 _atom_site_occupancy
  Ti  Ti0  1  0.16396217  0.32792432  0.21738417  1
  Ti  Ti1  1  0.33519146  0.16077301  0.96710373  1
  Ti  Ti2  1  0.16635131  0.33270260  0.72232843  1
  Ti  Ti3  1  0.32977349  0.16584829  0.47350929  1
  Ti  Ti4  1  0.17071075  0.84192411  0.22282513  1
  Ti  Ti5  1  0.33623034  0.67246069  0.97305945  1
  Ti  Ti6  1  0.16528438  0.83211036  0.71828576  1
  Ti  Ti7  1  0.33325958  0.66651918  0.46849694  1
  Ti  Ti8  1  0.82558152  0.16077301  0.96710373  1
  Ti  Ti9  1  0.66639777  0.33279555  0.71514904  1
  Ti  Ti10  1  0.83607479  0.16584829  0.47350929  1
  Ti  Ti11  1  0.67121336  0.84192411  0.22282513  1
  Ti  Ti12  1  0.66682598  0.83211036  0.71828576  1
  Ti  Ti13  1  0.83721291  0.67442584  0.47165019  1
  Si  Si14  1  0.66775539  0.33551077  0.23743060  1
  Si  Si15  1  0.82925052  0.65850105  0.98447936  1
  N  N16  1  0.16666838  0.33333677  0.47021614  1
  N  N17  1  0.37497675  0.18855379  0.21884703  1
  N  N18  1  0.16588129  0.33176260  0.97035064  1
  N  N19  1  0.33661378  0.16736274  0.71993880  1
  N  N20  1  0.16552973  0.83284386  0.47062891  1
  N  N21  1  0.33356535  0.66713072  0.22029319  1
  N  N22  1  0.12423861  0.81177350  0.97160065  1
  N  N23  1  0.33327324  0.66654650  0.72116419  1
  N  N24  1  0.67001794  0.34003586  0.45823883  1
  N  N25  1  0.81357703  0.18855379  0.21884703  1
  N  N26  1  0.68272697  0.36545395  0.96729662  1
  N  N27  1  0.83074896  0.16736274  0.71993880  1
  N  N28  1  0.66731416  0.83284386  0.47062891  1
  N  N29  1  0.81513115  0.63026231  0.21052008  1
  N  N30  1  0.68753490  0.81177350  0.97160065  1
  N  N31  1  0.83112598  0.66225193  0.72246360  1
