# generated using pymatgen
data_Al7MoN8
_symmetry_space_group_name_H-M   'P 1'
_cell_length_a   6.18877161
_cell_length_b   6.32254056
_cell_length_c   10.26687656
_cell_angle_alpha   89.29998460
_cell_angle_beta   90.00000006
_cell_angle_gamma   119.30254876
_symmetry_Int_Tables_number   1
_chemical_formula_structural   Al7MoN8
_chemical_formula_sum   'Al14 Mo2 N16'
_cell_volume   350.29338625
_cell_formula_units_Z   2
loop_
 _symmetry_equiv_pos_site_id
 _symmetry_equiv_pos_as_xyz
  1  'x, y, z'
loop_
 _atom_site_type_symbol
 _atom_site_label
 _atom_site_symmetry_multiplicity
 _atom_site_fract_x
 _atom_site_fract_y
 _atom_site_fract_z
 _atom_site_occupancy
  Mo  Mo0  1  0.17060445  0.34120926  0.26035123  1
  Mo  Mo1  1  0.67300075  0.34600112  0.25787291  1
  Al  Al2  1  0.32812531  0.15625013  0.99389698  1
  Al  Al3  1  0.16724417  0.33448835  0.74982548  1
  Al  Al4  1  0.33705662  0.17289488  0.50606063  1
  Al  Al5  1  0.16386518  0.82538570  0.25148513  1
  Al  Al6  1  0.33140502  0.66281002  0.99473113  1
  Al  Al7  1  0.16698893  0.83369987  0.75026407  1
  Al  Al8  1  0.33838045  0.67676090  0.50547047  1
  Al  Al9  1  0.82812482  0.15625013  0.99389695  1
  Al  Al10  1  0.66720877  0.33441754  0.74967136  1
  Al  Al11  1  0.83583828  0.17289490  0.50606062  1
  Al  Al12  1  0.66152049  0.82538568  0.25148513  1
  Al  Al13  1  0.83138082  0.66276165  0.99348012  1
  Al  Al14  1  0.66671093  0.83369987  0.75026407  1
  Al  Al15  1  0.83852715  0.67705431  0.50559092  1
  N  N16  1  0.17223038  0.34446072  0.45946809  1
  N  N17  1  0.31859091  0.13590772  0.17690655  1
  N  N18  1  0.16645347  0.33290694  0.93813728  1
  N  N19  1  0.33186400  0.16358293  0.69368364  1
  N  N20  1  0.17278674  0.84532388  0.44077763  1
  N  N21  1  0.33775541  0.67551079  0.18298007  1
  N  N22  1  0.16440144  0.82864290  0.93504344  1
  N  N23  1  0.33375836  0.66751674  0.69126128  1
  N  N24  1  0.67280310  0.34560626  0.45872938  1
  N  N25  1  0.81731677  0.13590764  0.17690652  1
  N  N26  1  0.66635477  0.33270955  0.93795280  1
  N  N27  1  0.83171894  0.16358293  0.69368364  1
  N  N28  1  0.67253712  0.84532386  0.44077762  1
  N  N29  1  0.83740378  0.67480760  0.18283562  1
  N  N30  1  0.66424146  0.82864290  0.93504344  1
  N  N31  1  0.83380115  0.66760233  0.69140582  1
