# generated using pymatgen
data_Hf7Ta9C16
_symmetry_space_group_name_H-M   'P 1'
_cell_length_a   9.08076537
_cell_length_b   9.07454950
_cell_length_c   4.55251786
_cell_angle_alpha   89.99999924
_cell_angle_beta   90.00000050
_cell_angle_gamma   89.99999962
_symmetry_Int_Tables_number   1
_chemical_formula_structural   Hf7Ta9C16
_chemical_formula_sum   'Hf7 Ta9 C16'
_cell_volume   375.14502093
_cell_formula_units_Z   1
loop_
 _symmetry_equiv_pos_site_id
 _symmetry_equiv_pos_as_xyz
  1  'x, y, z'
loop_
 _atom_site_type_symbol
 _atom_site_label
 _atom_site_symmetry_multiplicity
 _atom_site_fract_x
 _atom_site_fract_y
 _atom_site_fract_z
 _atom_site_occupancy
  C  C0  1  0.24928236  0.25059095  0.50000000  1
  C  C1  1  0.25023171  0.99999995  0.00000001  1
  C  C2  1  0.00000000  0.25262498  0.00000000  1
  C  C3  1  0.00000000  0.99999994  0.50000001  1
  C  C4  1  0.24928232  0.74940904  0.50000000  1
  C  C5  1  0.24674206  0.50000006  0.00000000  1
  C  C6  1  0.00000000  0.74737500  0.99999998  1
  C  C7  1  0.00000000  0.50000008  0.49999999  1
  C  C8  1  0.75071764  0.25059095  0.49999999  1
  C  C9  1  0.74976829  0.99999999  0.00000000  1
  C  C10  1  0.50000000  0.25000353  0.00000000  1
  C  C11  1  0.50000000  0.00000001  0.49999999  1
  C  C12  1  0.75071769  0.74940905  0.50000001  1
  C  C13  1  0.75325792  0.50000004  0.00000000  1
  C  C14  1  0.50000000  0.74999648  0.00000002  1
  C  C15  1  0.50000001  0.49999998  0.50000001  1
  Hf  Hf16  1  0.00000000  0.99999994  0.00000000  1
  Hf  Hf17  1  0.25023437  0.99999995  0.50000000  1
  Hf  Hf18  1  0.24946327  0.50000004  0.50000000  1
  Hf  Hf19  1  0.50000000  0.99999998  0.00000000  1
  Hf  Hf20  1  0.74976563  0.99999995  0.49999999  1
  Hf  Hf21  1  0.50000000  0.50000002  0.00000002  1
  Hf  Hf22  1  0.75053673  0.50000005  0.50000000  1
  Ta  Ta23  1  0.00000001  0.25008835  0.50000000  1
  Ta  Ta24  1  0.24981600  0.24973746  0.00000001  1
  Ta  Ta25  1  0.99999999  0.74991167  0.49999998  1
  Ta  Ta26  1  0.24981609  0.75026254  0.00000000  1
  Ta  Ta27  1  0.49999999  0.24947935  0.50000000  1
  Ta  Ta28  1  0.75018399  0.24973745  0.99999999  1
  Ta  Ta29  1  0.50000002  0.75052064  0.50000001  1
  Ta  Ta30  1  0.75018392  0.75026254  0.99999999  1
  Ta  Ta31  1  0.99999999  0.50000007  0.99999999  1
