# generated using pymatgen
data_Hf7Zr8PtC16
_symmetry_space_group_name_H-M   'P 1'
_cell_length_a   9.31733554
_cell_length_b   9.32211509
_cell_length_c   4.68701932
_cell_angle_alpha   90.00033813
_cell_angle_beta   89.99999218
_cell_angle_gamma   90.00001580
_symmetry_Int_Tables_number   1
_chemical_formula_structural   Hf7Zr8PtC16
_chemical_formula_sum   'Hf7 Zr8 Pt1 C16'
_cell_volume   407.10172243
_cell_formula_units_Z   1
loop_
 _symmetry_equiv_pos_site_id
 _symmetry_equiv_pos_as_xyz
  1  'x, y, z'
loop_
 _atom_site_type_symbol
 _atom_site_label
 _atom_site_symmetry_multiplicity
 _atom_site_fract_x
 _atom_site_fract_y
 _atom_site_fract_z
 _atom_site_occupancy
  C  C0  1  0.24935767  0.25243149  0.49993291  1
  C  C1  1  0.24977903  0.99985463  0.99992576  1
  C  C2  1  0.99999975  0.25009418  0.00003418  1
  C  C3  1  0.99999937  0.99861830  0.49996364  1
  C  C4  1  0.24791335  0.74806432  0.49992357  1
  C  C5  1  0.24915240  0.49996516  0.00003664  1
  C  C6  1  0.00000012  0.74811169  0.00003472  1
  C  C7  1  0.00000025  0.50246580  0.50094824  1
  C  C8  1  0.75064135  0.25243080  0.49993274  1
  C  C9  1  0.75021980  0.99985422  0.99992559  1
  C  C10  1  0.49999977  0.25017526  0.99993762  1
  C  C11  1  0.49999917  0.99987394  0.49994748  1
  C  C12  1  0.75208631  0.74806414  0.49992340  1
  C  C13  1  0.75085089  0.49996467  0.00003644  1
  C  C14  1  0.50000012  0.74973928  0.99993011  1
  C  C15  1  0.50000077  0.50024725  0.49997898  1
  Zr  Zr16  1  0.99999961  0.00006092  0.99991680  1
  Zr  Zr17  1  0.24989274  0.99988281  0.49993376  1
  Zr  Zr18  1  0.24664491  0.50052283  0.49992920  1
  Zr  Zr19  1  0.49999925  0.99983039  0.99993467  1
  Zr  Zr20  1  0.75010628  0.99988232  0.49993362  1
  Zr  Zr21  1  0.50000031  0.50015796  0.99992654  1
  Zr  Zr22  1  0.75335593  0.50052243  0.49992884  1
  Zr  Zr23  1  0.99999958  0.25413450  0.49994323  1
  Hf  Hf24  1  0.24891217  0.25167716  0.99995795  1
  Hf  Hf25  1  0.99999998  0.74724580  0.49992242  1
  Hf  Hf26  1  0.24818112  0.74836561  0.99994987  1
  Hf  Hf27  1  0.49999963  0.25047758  0.49994496  1
  Hf  Hf28  1  0.75108667  0.25167640  0.99995782  1
  Hf  Hf29  1  0.50000008  0.74954522  0.49993891  1
  Hf  Hf30  1  0.75181848  0.74836563  0.99994973  1
  Pt  Pt31  1  0.00000312  0.49769722  0.00051966  1
