# generated using pymatgen
data_Hf7Zr8TaC16
_symmetry_space_group_name_H-M   'P 1'
_cell_length_a   9.33632399
_cell_length_b   9.33686638
_cell_length_c   4.66120247
_cell_angle_alpha   90.00001229
_cell_angle_beta   90.00025518
_cell_angle_gamma   89.99993962
_symmetry_Int_Tables_number   1
_chemical_formula_structural   Hf7Zr8TaC16
_chemical_formula_sum   'Hf7 Zr8 Ta1 C16'
_cell_volume   406.32638635
_cell_formula_units_Z   1
loop_
 _symmetry_equiv_pos_site_id
 _symmetry_equiv_pos_as_xyz
  1  'x, y, z'
loop_
 _atom_site_type_symbol
 _atom_site_label
 _atom_site_symmetry_multiplicity
 _atom_site_fract_x
 _atom_site_fract_y
 _atom_site_fract_z
 _atom_site_occupancy
  C  C0  1  0.25066894  0.25074355  0.50009540  1
  C  C1  1  0.24945058  0.99985991  0.00003352  1
  C  C2  1  0.99996673  0.25678878  0.00011136  1
  C  C3  1  0.00003398  0.99840567  0.50000375  1
  C  C4  1  0.24927412  0.74914377  0.49994901  1
  C  C5  1  0.24354277  0.50010195  0.00006934  1
  C  C6  1  0.99996867  0.74368236  0.99995833  1
  C  C7  1  0.99998685  0.50139470  0.49974770  1
  C  C8  1  0.74929991  0.25074586  0.50008477  1
  C  C9  1  0.75058074  0.99988635  0.99993628  1
  C  C10  1  0.49995783  0.25067213  0.00007259  1
  C  C11  1  0.50003878  0.99979341  0.49998966  1
  C  C12  1  0.75070210  0.74914672  0.49992164  1
  C  C13  1  0.75652185  0.50009436  0.99993810  1
  C  C14  1  0.49998647  0.74937290  0.99994763  1
  C  C15  1  0.50001420  0.50014709  0.49997363  1
  Zr  Zr16  1  0.00001330  0.99938309  0.00000263  1
  Zr  Zr17  1  0.25005313  0.99974473  0.50001587  1
  Zr  Zr18  1  0.24910317  0.50029579  0.50006009  1
  Zr  Zr19  1  0.50001149  0.99989358  0.99997820  1
  Zr  Zr20  1  0.74998346  0.99975702  0.49994286  1
  Zr  Zr21  1  0.49997048  0.50016243  0.99999837  1
  Zr  Zr22  1  0.75087053  0.50027591  0.49995799  1
  Zr  Zr23  1  0.00000662  0.25114132  0.50009971  1
  Hf  Hf24  1  0.24986780  0.25065806  0.00010437  1
  Hf  Hf25  1  0.00000778  0.74891591  0.49994389  1
  Hf  Hf26  1  0.24953301  0.74936487  0.99996483  1
  Hf  Hf27  1  0.49999451  0.25029445  0.50005610  1
  Hf  Hf28  1  0.75012139  0.25064473  0.00002949  1
  Hf  Hf29  1  0.50002896  0.74976410  0.49992204  1
  Hf  Hf30  1  0.75049005  0.74936853  0.99987864  1
  Ta  Ta31  1  0.99994980  0.50035597  0.00021217  1
