# generated using pymatgen
data_Hf7Zr8VC16
_symmetry_space_group_name_H-M   'P 1'
_cell_length_a   9.30647575
_cell_length_b   9.30838284
_cell_length_c   4.65195637
_cell_angle_alpha   90.00000000
_cell_angle_beta   90.00000012
_cell_angle_gamma   90.00000012
_symmetry_Int_Tables_number   1
_chemical_formula_structural   Hf7Zr8VC16
_chemical_formula_sum   'Hf7 Zr8 V1 C16'
_cell_volume   402.99078904
_cell_formula_units_Z   1
loop_
 _symmetry_equiv_pos_site_id
 _symmetry_equiv_pos_as_xyz
  1  'x, y, z'
loop_
 _atom_site_type_symbol
 _atom_site_label
 _atom_site_symmetry_multiplicity
 _atom_site_fract_x
 _atom_site_fract_y
 _atom_site_fract_z
 _atom_site_occupancy
  C  C0  1  0.24996843  0.25143100  0.50000000  1
  C  C1  1  0.24923995  0.99990115  0.99999999  1
  C  C2  1  0.00000000  0.25979604  0.99999999  1
  C  C3  1  0.00000000  0.99840626  0.49999998  1
  C  C4  1  0.24856540  0.74844630  0.50000001  1
  C  C5  1  0.24039973  0.50008878  0.00000001  1
  C  C6  1  0.00000000  0.74062670  0.00000000  1
  C  C7  1  0.99999999  0.50139764  0.50000000  1
  C  C8  1  0.75003157  0.25143100  0.49999999  1
  C  C9  1  0.75076006  0.99990115  0.99999998  1
  C  C10  1  0.50000000  0.25081319  0.00000000  1
  C  C11  1  0.50000000  0.99980634  0.50000000  1
  C  C12  1  0.75143459  0.74844630  0.50000000  1
  C  C13  1  0.75960029  0.50008878  0.00000000  1
  C  C14  1  0.50000001  0.74917811  0.00000001  1
  C  C15  1  0.50000000  0.50014811  0.50000001  1
  Zr  Zr16  1  0.00000001  0.99937350  0.00000000  1
  Zr  Zr17  1  0.24985028  0.99979414  0.50000000  1
  Zr  Zr18  1  0.24700222  0.50028716  0.50000001  1
  Zr  Zr19  1  0.50000001  0.99985537  0.00000000  1
  Zr  Zr20  1  0.75014973  0.99979414  0.49999998  1
  Zr  Zr21  1  0.50000000  0.50013664  0.00000001  1
  Zr  Zr22  1  0.75299779  0.50028715  0.50000002  1
  Zr  Zr23  1  0.00000000  0.25337664  0.49999999  1
  Hf  Hf24  1  0.24869572  0.25177073  0.00000000  1
  Hf  Hf25  1  0.00000000  0.74696089  0.49999999  1
  Hf  Hf26  1  0.24826419  0.74815577  0.00000001  1
  Hf  Hf27  1  0.50000000  0.25050003  0.50000000  1
  Hf  Hf28  1  0.75130429  0.25177073  0.99999999  1
  Hf  Hf29  1  0.50000000  0.74953912  0.50000001  1
  Hf  Hf30  1  0.75173581  0.74815577  0.99999999  1
  V  V31  1  0.99999998  0.50033534  0.00000000  1
