# generated using pymatgen
data_Hf7Zr8ZnC16
_symmetry_space_group_name_H-M   'P 1'
_cell_length_a   9.35106862
_cell_length_b   9.35106704
_cell_length_c   4.67288446
_cell_angle_alpha   89.99999914
_cell_angle_beta   89.99999914
_cell_angle_gamma   89.99999988
_symmetry_Int_Tables_number   1
_chemical_formula_structural   Hf7Zr8ZnC16
_chemical_formula_sum   'Hf7 Zr8 Zn1 C16'
_cell_volume   408.60855716
_cell_formula_units_Z   1
loop_
 _symmetry_equiv_pos_site_id
 _symmetry_equiv_pos_as_xyz
  1  'x, y, z'
loop_
 _atom_site_type_symbol
 _atom_site_label
 _atom_site_symmetry_multiplicity
 _atom_site_fract_x
 _atom_site_fract_y
 _atom_site_fract_z
 _atom_site_occupancy
  C  C0  1  0.25019734  0.25148157  0.50000001  1
  C  C1  1  0.25022958  0.99987869  0.00000002  1
  C  C2  1  0.00000000  0.24491737  0.99999999  1
  C  C3  1  0.00000000  0.99842591  0.50000000  1
  C  C4  1  0.24876314  0.74877726  0.50000001  1
  C  C5  1  0.25477158  0.50005921  0.00000001  1
  C  C6  1  0.00000000  0.75377805  0.00000000  1
  C  C7  1  0.99999999  0.50189307  0.49999997  1
  C  C8  1  0.74980266  0.25148156  0.49999999  1
  C  C9  1  0.74977043  0.99987867  0.99999999  1
  C  C10  1  0.50000001  0.24968697  0.00000001  1
  C  C11  1  0.50000000  0.99978587  0.49999998  1
  C  C12  1  0.75123686  0.74877725  0.49999999  1
  C  C13  1  0.74522842  0.50005921  0.00000001  1
  C  C14  1  0.50000000  0.75020102  0.99999999  1
  C  C15  1  0.50000000  0.50020625  0.50000001  1
  Zr  Zr16  1  0.00000001  0.99966490  0.00000001  1
  Zr  Zr17  1  0.24986709  0.99981226  0.50000001  1
  Zr  Zr18  1  0.24724463  0.50039113  0.50000004  1
  Zr  Zr19  1  0.50000001  0.99977917  0.99999998  1
  Zr  Zr20  1  0.75013292  0.99981224  0.49999999  1
  Zr  Zr21  1  0.50000000  0.50014845  0.00000001  1
  Zr  Zr22  1  0.75275536  0.50039113  0.49999999  1
  Zr  Zr23  1  0.99999999  0.25368165  0.49999995  1
  Hf  Hf24  1  0.24901367  0.25150365  0.00000000  1
  Hf  Hf25  1  0.00000001  0.74730542  0.50000002  1
  Hf  Hf26  1  0.24837799  0.74833453  0.00000001  1
  Hf  Hf27  1  0.50000000  0.25041766  0.50000000  1
  Hf  Hf28  1  0.75098632  0.25150364  0.99999998  1
  Hf  Hf29  1  0.49999999  0.74961706  0.49999999  1
  Hf  Hf30  1  0.75162202  0.74833452  0.00000000  1
  Zn  Zn31  1  0.99999999  0.50001469  0.00000003  1
