# generated using pymatgen
data_Hf7Zr9C16
_symmetry_space_group_name_H-M   'P 1'
_cell_length_a   9.36737716
_cell_length_b   9.36758792
_cell_length_c   4.67908318
_cell_angle_alpha   89.99999743
_cell_angle_beta   89.99988490
_cell_angle_gamma   90.00003908
_symmetry_Int_Tables_number   1
_chemical_formula_structural   Hf7Zr9C16
_chemical_formula_sum   'Hf7 Zr9 C16'
_cell_volume   410.58828160
_cell_formula_units_Z   1
loop_
 _symmetry_equiv_pos_site_id
 _symmetry_equiv_pos_as_xyz
  1  'x, y, z'
loop_
 _atom_site_type_symbol
 _atom_site_label
 _atom_site_symmetry_multiplicity
 _atom_site_fract_x
 _atom_site_fract_y
 _atom_site_fract_z
 _atom_site_occupancy
  C  C0  1  0.25151872  0.25001252  0.50001611  1
  C  C1  1  0.25017499  0.99985997  0.00015786  1
  C  C2  1  0.00005797  0.25001038  0.00002702  1
  C  C3  1  0.99997758  0.99838029  0.50014901  1
  C  C4  1  0.25013529  0.74998808  0.50004389  1
  C  C5  1  0.25020440  0.50014185  0.99985783  1
  C  C6  1  0.00005670  0.74998957  0.00004554  1
  C  C7  1  0.99994675  0.50162242  0.49985208  1
  C  C8  1  0.74836830  0.24998258  0.49995152  1
  C  C9  1  0.74991810  0.99985982  0.00013637  1
  C  C10  1  0.50004053  0.24998491  0.99996089  1
  C  C11  1  0.49993890  0.99979301  0.50015435  1
  C  C12  1  0.74975758  0.75001227  0.49997433  1
  C  C13  1  0.74989434  0.50013800  0.99983100  1
  C  C14  1  0.50004628  0.75000841  0.99998145  1
  C  C15  1  0.49997045  0.50020939  0.49983871  1
  Zr  Zr16  1  0.00001204  0.99951206  0.00008898  1
  Zr  Zr17  1  0.25028964  0.99968671  0.50012736  1
  Zr  Zr18  1  0.25029901  0.50031103  0.50000143  1
  Zr  Zr19  1  0.49998842  0.99986214  0.00003322  1
  Zr  Zr20  1  0.74971222  0.99969190  0.50000877  1
  Zr  Zr21  1  0.50000218  0.50014218  0.99990271  1
  Zr  Zr22  1  0.74969828  0.50031228  0.49988054  1
  Zr  Zr23  1  0.00001502  0.25000405  0.49998916  1
  Zr  Zr24  1  0.99999225  0.50048463  0.99997349  1
  Hf  Hf25  1  0.25052320  0.25000552  0.00001609  1
  Hf  Hf26  1  0.00000668  0.74999427  0.50001084  1
  Hf  Hf27  1  0.25014327  0.74999071  0.00003842  1
  Hf  Hf28  1  0.50000187  0.24999570  0.49999178  1
  Hf  Hf29  1  0.74947020  0.24999218  0.99997125  1
  Hf  Hf30  1  0.49999964  0.75000947  0.50000542  1
  Hf  Hf31  1  0.74983919  0.75001172  0.99998258  1
