# generated using pymatgen
data_Hf7Zr8TiC16
_symmetry_space_group_name_H-M   'P 1'
_cell_length_a   9.32516195
_cell_length_b   9.32673267
_cell_length_c   4.66200640
_cell_angle_alpha   90.00046960
_cell_angle_beta   89.99977460
_cell_angle_gamma   90.00039003
_symmetry_Int_Tables_number   1
_chemical_formula_structural   Hf7Zr8TiC16
_chemical_formula_sum   'Hf7 Zr8 Ti1 C16'
_cell_volume   405.47004679
_cell_formula_units_Z   1
loop_
 _symmetry_equiv_pos_site_id
 _symmetry_equiv_pos_as_xyz
  1  'x, y, z'
loop_
 _atom_site_type_symbol
 _atom_site_label
 _atom_site_symmetry_multiplicity
 _atom_site_fract_x
 _atom_site_fract_y
 _atom_site_fract_z
 _atom_site_occupancy
  C  C0  1  0.25065731  0.25082241  0.50014880  1
  C  C1  1  0.24939949  0.99987678  0.00003457  1
  C  C2  1  0.00000625  0.25610136  0.00021829  1
  C  C3  1  0.99998715  0.99838986  0.50007659  1
  C  C4  1  0.24930007  0.74916864  0.49990197  1
  C  C5  1  0.24387408  0.50010539  0.00003210  1
  C  C6  1  0.00001708  0.74392752  0.99998302  1
  C  C7  1  0.00001888  0.50141040  0.50005300  1
  C  C8  1  0.74935752  0.25084013  0.50010129  1
  C  C9  1  0.75058671  0.99987968  0.99996216  1
  C  C10  1  0.50000241  0.25068156  0.00001613  1
  C  C11  1  0.49999227  0.99982267  0.49989535  1
  C  C12  1  0.75073755  0.74917044  0.49986452  1
  C  C13  1  0.75600087  0.50011606  0.99999372  1
  C  C14  1  0.50000672  0.74934065  0.99978766  1
  C  C15  1  0.49998241  0.50018509  0.49988112  1
  Zr  Zr16  1  0.99999174  0.99942966  0.00007631  1
  Zr  Zr17  1  0.24966190  0.99973112  0.50002862  1
  Zr  Zr18  1  0.24745302  0.50029423  0.50002216  1
  Zr  Zr19  1  0.49999521  0.99986327  0.99990663  1
  Zr  Zr20  1  0.75032742  0.99973936  0.49997233  1
  Zr  Zr21  1  0.50001597  0.50013821  0.99990331  1
  Zr  Zr22  1  0.75255813  0.50030349  0.49997764  1
  Zr  Zr23  1  0.99999414  0.25291125  0.50021022  1
  Hf  Hf24  1  0.24870719  0.25174488  0.00013035  1
  Hf  Hf25  1  0.00001425  0.74723871  0.49997334  1
  Hf  Hf26  1  0.24829691  0.74821703  0.99991592  1
  Hf  Hf27  1  0.49998928  0.25067450  0.50001164  1
  Hf  Hf28  1  0.75128249  0.25176887  0.00008368  1
  Hf  Hf29  1  0.49999726  0.74935613  0.49980961  1
  Hf  Hf30  1  0.75172061  0.74820211  0.99987983  1
  Ti  Ti31  1  0.00006776  0.50054857  0.00014815  1
