# generated using pymatgen
data_HfZrC2
_symmetry_space_group_name_H-M   'P 1'
_cell_length_a   9.35935721
_cell_length_b   9.35967393
_cell_length_c   4.67510841
_cell_angle_alpha   89.99993554
_cell_angle_beta   89.99995429
_cell_angle_gamma   89.99998555
_symmetry_Int_Tables_number   1
_chemical_formula_structural   HfZrC2
_chemical_formula_sum   'Hf8 Zr8 C16'
_cell_volume   409.54198238
_cell_formula_units_Z   8
loop_
 _symmetry_equiv_pos_site_id
 _symmetry_equiv_pos_as_xyz
  1  'x, y, z'
loop_
 _atom_site_type_symbol
 _atom_site_label
 _atom_site_symmetry_multiplicity
 _atom_site_fract_x
 _atom_site_fract_y
 _atom_site_fract_z
 _atom_site_occupancy
  C  C0  1  0.25145329  0.25014200  0.49990558  1
  C  C1  1  0.24989337  0.99990506  0.00005368  1
  C  C2  1  0.99988866  0.25155770  0.99988695  1
  C  C3  1  0.00005483  0.99841779  0.50006027  1
  C  C4  1  0.25006702  0.74986579  0.50006428  1
  C  C5  1  0.24854301  0.50011582  0.99998872  1
  C  C6  1  0.00000287  0.74848380  0.00010129  1
  C  C7  1  0.00004648  0.50155999  0.50003491  1
  C  C8  1  0.74856236  0.25013335  0.49997533  1
  C  C9  1  0.75000116  0.99983701  0.00001624  1
  C  C10  1  0.49995411  0.25016649  0.99991495  1
  C  C11  1  0.50004703  0.99976720  0.49993351  1
  C  C12  1  0.75003678  0.74987680  0.50013797  1
  C  C13  1  0.75139208  0.50016355  0.99994738  1
  C  C14  1  0.49995210  0.74983291  0.00009519  1
  C  C15  1  0.50006106  0.50021265  0.49989816  1
  Zr  Zr16  1  0.99999990  0.99950213  0.00012440  1
  Zr  Zr17  1  0.25017376  0.99970114  0.50008772  1
  Zr  Zr18  1  0.24982104  0.50027624  0.49998516  1
  Zr  Zr19  1  0.49999010  0.99985861  0.99996237  1
  Zr  Zr20  1  0.74985689  0.99967888  0.50001397  1
  Zr  Zr21  1  0.49999394  0.50016046  0.99987941  1
  Zr  Zr22  1  0.75018258  0.50032054  0.49993330  1
  Zr  Zr23  1  0.00003027  0.25048103  0.49987976  1
  Hf  Hf24  1  0.25021772  0.25033136  0.99985407  1
  Hf  Hf25  1  0.99999988  0.74950729  0.50028412  1
  Hf  Hf26  1  0.24974593  0.74965413  0.00022947  1
  Hf  Hf27  1  0.50006504  0.25013676  0.49971807  1
  Hf  Hf28  1  0.74984249  0.25032962  0.99976619  1
  Hf  Hf29  1  0.49996426  0.74987294  0.50009443  1
  Hf  Hf30  1  0.75018393  0.74967960  0.00014959  1
  Hf  Hf31  1  0.99997607  0.50047141  0.00002354  1
