# generated using pymatgen
data_Hf7Zr8NbC16
_symmetry_space_group_name_H-M   'P 1'
_cell_length_a   9.33676391
_cell_length_b   9.33777885
_cell_length_c   4.66334959
_cell_angle_alpha   90.00011844
_cell_angle_beta   90.00003145
_cell_angle_gamma   89.99994263
_symmetry_Int_Tables_number   1
_chemical_formula_structural   Hf7Zr8NbC16
_chemical_formula_sum   'Hf7 Zr8 Nb1 C16'
_cell_volume   406.57243919
_cell_formula_units_Z   1
loop_
 _symmetry_equiv_pos_site_id
 _symmetry_equiv_pos_as_xyz
  1  'x, y, z'
loop_
 _atom_site_type_symbol
 _atom_site_label
 _atom_site_symmetry_multiplicity
 _atom_site_fract_x
 _atom_site_fract_y
 _atom_site_fract_z
 _atom_site_occupancy
  C  C0  1  0.25072423  0.25070924  0.50000102  1
  C  C1  1  0.24960012  0.99988786  0.99998423  1
  C  C2  1  0.00000137  0.25572827  0.99999790  1
  C  C3  1  0.00000274  0.99842217  0.49999747  1
  C  C4  1  0.24930209  0.74916044  0.49997802  1
  C  C5  1  0.24455549  0.50007597  0.99999806  1
  C  C6  1  0.99999930  0.74468353  0.99999320  1
  C  C7  1  0.99999976  0.50132507  0.50005207  1
  C  C8  1  0.74927983  0.25070748  0.50000976  1
  C  C9  1  0.75040187  0.99989022  0.00000439  1
  C  C10  1  0.50000512  0.25051541  0.00001185  1
  C  C11  1  0.50000289  0.99984054  0.49999481  1
  C  C12  1  0.75069251  0.74917077  0.49998943  1
  C  C13  1  0.75544906  0.50008313  0.00001674  1
  C  C14  1  0.49999792  0.74953585  0.99999163  1
  C  C15  1  0.50000116  0.50018993  0.50000869  1
  Zr  Zr16  1  0.99999835  0.99946544  0.99999916  1
  Zr  Zr17  1  0.25010729  0.99975206  0.49999481  1
  Zr  Zr18  1  0.24904451  0.50026671  0.49999191  1
  Zr  Zr19  1  0.50000366  0.99986854  0.00001643  1
  Zr  Zr20  1  0.74988934  0.99976030  0.50000012  1
  Zr  Zr21  1  0.49999550  0.50018981  0.00001493  1
  Zr  Zr22  1  0.75095199  0.50026426  0.49999517  1
  Zr  Zr23  1  0.00000294  0.25125886  0.50001164  1
  Hf  Hf24  1  0.24997315  0.25055898  0.00000491  1
  Hf  Hf25  1  0.99999613  0.74891593  0.49998418  1
  Hf  Hf26  1  0.24955081  0.74939272  0.99997810  1
  Hf  Hf27  1  0.49999781  0.25020641  0.50002783  1
  Hf  Hf28  1  0.75002570  0.25056561  0.00001234  1
  Hf  Hf29  1  0.50000015  0.74987061  0.49999973  1
  Hf  Hf30  1  0.75044459  0.74939019  0.99998509  1
  Nb  Nb31  1  0.00000259  0.50034770  0.99995440  1
