# generated using pymatgen
data_Hf7Zr8PdC16
_symmetry_space_group_name_H-M   'P 1'
_cell_length_a   9.32574639
_cell_length_b   9.32894257
_cell_length_c   4.68149541
_cell_angle_alpha   89.99999633
_cell_angle_beta   90.00000783
_cell_angle_gamma   89.99999625
_symmetry_Int_Tables_number   1
_chemical_formula_structural   Hf7Zr8PdC16
_chemical_formula_sum   'Hf7 Zr8 Pd1 C16'
_cell_volume   407.28706938
_cell_formula_units_Z   1
loop_
 _symmetry_equiv_pos_site_id
 _symmetry_equiv_pos_as_xyz
  1  'x, y, z'
loop_
 _atom_site_type_symbol
 _atom_site_label
 _atom_site_symmetry_multiplicity
 _atom_site_fract_x
 _atom_site_fract_y
 _atom_site_fract_z
 _atom_site_occupancy
  C  C0  1  0.24955752  0.25221426  0.50006074  1
  C  C1  1  0.24976204  0.99990225  0.00000633  1
  C  C2  1  0.00000016  0.24877891  0.00002210  1
  C  C3  1  0.99999997  0.99834840  0.49994970  1
  C  C4  1  0.24808263  0.74824508  0.50005360  1
  C  C5  1  0.25054264  0.50006550  0.99991751  1
  C  C6  1  0.00000001  0.74947345  0.00003568  1
  C  C7  1  0.99999996  0.50209138  0.49948239  1
  C  C8  1  0.75044250  0.25221420  0.50005974  1
  C  C9  1  0.75023821  0.99990247  0.00000588  1
  C  C10  1  0.49999992  0.25016242  0.00011198  1
  C  C11  1  0.49999996  0.99976506  0.50007624  1
  C  C12  1  0.75191716  0.74824494  0.50005309  1
  C  C13  1  0.74945721  0.50006534  0.99991728  1
  C  C14  1  0.50000014  0.74973331  0.00014560  1
  C  C15  1  0.49999984  0.50020432  0.50000532  1
  Zr  Zr16  1  0.00000003  0.99988109  0.00003153  1
  Zr  Zr17  1  0.24979398  0.99985815  0.50005278  1
  Zr  Zr18  1  0.24673741  0.50050927  0.49999066  1
  Zr  Zr19  1  0.50000005  0.99978717  0.00005832  1
  Zr  Zr20  1  0.75020604  0.99985830  0.50005252  1
  Zr  Zr21  1  0.49999992  0.50016187  0.99998311  1
  Zr  Zr22  1  0.75326253  0.50050907  0.49999101  1
  Zr  Zr23  1  0.00000016  0.25408932  0.50005195  1
  Hf  Hf24  1  0.24891217  0.25159661  0.00004635  1
  Hf  Hf25  1  0.99999987  0.74710140  0.50002083  1
  Hf  Hf26  1  0.24822742  0.74833957  0.00001840  1
  Hf  Hf27  1  0.49999992  0.25055418  0.50003667  1
  Hf  Hf28  1  0.75108805  0.25159668  0.00004631  1
  Hf  Hf29  1  0.50000003  0.74952339  0.50000429  1
  Hf  Hf30  1  0.75177247  0.74833948  0.00001835  1
  Pd  Pd31  1  0.00000012  0.49888319  0.99969367  1
