# generated using pymatgen
data_Hf7Zr8CdC16
_symmetry_space_group_name_H-M   'P 1'
_cell_length_a   9.35399799
_cell_length_b   14.91136184
_cell_length_c   3.35402894
_cell_angle_alpha   64.75158065
_cell_angle_beta   89.92150561
_cell_angle_gamma   90.20151359
_symmetry_Int_Tables_number   1
_chemical_formula_structural   Hf7Zr8CdC16
_chemical_formula_sum   'Hf7 Zr8 Cd1 C16'
_cell_volume   423.12549929
_cell_formula_units_Z   1
loop_
 _symmetry_equiv_pos_site_id
 _symmetry_equiv_pos_as_xyz
  1  'x, y, z'
loop_
 _atom_site_type_symbol
 _atom_site_label
 _atom_site_symmetry_multiplicity
 _atom_site_fract_x
 _atom_site_fract_y
 _atom_site_fract_z
 _atom_site_occupancy
  C  C0  1  0.24365116  0.21791114  0.53817142  1
  C  C1  1  0.24166934  0.98832368  0.90970657  1
  C  C2  1  0.98958701  0.08263172  0.33203180  1
  C  C3  1  0.24008743  0.92056909  0.30529408  1
  C  C4  1  0.23592925  0.69641672  0.66661625  1
  C  C5  1  0.24909958  0.45733781  0.10200433  1
  C  C6  1  0.98946542  0.82539101  0.89115178  1
  C  C7  1  0.99125875  0.32535909  0.85383635  1
  C  C8  1  0.74058210  0.21132774  0.57800590  1
  C  C9  1  0.74064810  0.95665796  0.10035891  1
  C  C10  1  0.49437094  0.33192361  0.84075769  1
  C  C11  1  0.49304618  0.08642886  0.31940942  1
  C  C12  1  0.74582736  0.70647736  0.61584466  1
  C  C13  1  0.73773559  0.45912954  0.09712411  1
  C  C14  1  0.49429590  0.82611617  0.88912117  1
  C  C15  1  0.49478331  0.58252528  0.36267147  1
  Zr  Zr16  1  0.98468604  0.96273631  0.07683361  1
  Zr  Zr17  1  0.24342425  0.10279229  0.25400098  1
  Zr  Zr18  1  0.25081559  0.57430980  0.38320629  1
  Zr  Zr19  1  0.49676513  0.95607227  0.10806017  1
  Zr  Zr20  1  0.73953399  0.08403225  0.33902988  1
  Zr  Zr21  1  0.49528115  0.45282612  0.11084278  1
  Zr  Zr22  1  0.73636038  0.57837655  0.36789085  1
  Zr  Zr23  1  0.98828586  0.21351038  0.56702898  1
  Hf  Hf24  1  0.23891183  0.33677467  0.82684351  1
  Hf  Hf25  1  0.98656256  0.71777938  0.59805128  1
  Hf  Hf26  1  0.24736438  0.80875101  0.95610241  1
  Hf  Hf27  1  0.49622593  0.21134665  0.57237444  1
  Hf  Hf28  1  0.74508898  0.33306450  0.84209727  1
  Hf  Hf29  1  0.49765620  0.70281810  0.63182257  1
  Hf  Hf30  1  0.73942929  0.83123732  0.86495889  1
  Cd  Cd31  1  0.99157102  0.45904557  0.09875022  1
