# generated using pymatgen
data_Hf7Zr8AuC16
_symmetry_space_group_name_H-M   'P 1'
_cell_length_a   9.34487894
_cell_length_b   9.34663417
_cell_length_c   4.69218591
_cell_angle_alpha   90.00060957
_cell_angle_beta   90.00013786
_cell_angle_gamma   89.99994796
_symmetry_Int_Tables_number   1
_chemical_formula_structural   Hf7Zr8AuC16
_chemical_formula_sum   'Hf7 Zr8 Au1 C16'
_cell_volume   409.83036728
_cell_formula_units_Z   1
loop_
 _symmetry_equiv_pos_site_id
 _symmetry_equiv_pos_as_xyz
  1  'x, y, z'
loop_
 _atom_site_type_symbol
 _atom_site_label
 _atom_site_symmetry_multiplicity
 _atom_site_fract_x
 _atom_site_fract_y
 _atom_site_fract_z
 _atom_site_occupancy
  C  C0  1  0.24978494  0.25196471  0.50006567  1
  C  C1  1  0.24996183  0.99987347  0.00007331  1
  C  C2  1  0.99999413  0.24476232  0.99996930  1
  C  C3  1  0.99998676  0.99861347  0.50001167  1
  C  C4  1  0.24838902  0.74848172  0.49999774  1
  C  C5  1  0.25463492  0.50003161  0.99991222  1
  C  C6  1  0.00000456  0.75322089  0.99989186  1
  C  C7  1  0.00002501  0.50243841  0.49941989  1
  C  C8  1  0.75021740  0.25196111  0.50009929  1
  C  C9  1  0.75000217  0.99987318  0.00010510  1
  C  C10  1  0.49999620  0.25000165  0.00011607  1
  C  C11  1  0.49998546  0.99988293  0.50014002  1
  C  C12  1  0.75162951  0.74848638  0.50003603  1
  C  C13  1  0.74536829  0.50003476  0.99996567  1
  C  C14  1  0.50000212  0.74996364  0.00006179  1
  C  C15  1  0.50002192  0.50025159  0.50001893  1
  Zr  Zr16  1  0.99999443  0.99983318  0.00002952  1
  Zr  Zr17  1  0.25014886  0.99983067  0.50006623  1
  Zr  Zr18  1  0.24801898  0.50046836  0.49997446  1
  Zr  Zr19  1  0.49998698  0.99982798  0.00012970  1
  Zr  Zr20  1  0.74983050  0.99983049  0.50009698  1
  Zr  Zr21  1  0.50002106  0.50020226  0.00002797  1
  Zr  Zr22  1  0.75201774  0.50046744  0.50001299  1
  Zr  Zr23  1  0.00000282  0.25278762  0.50003788  1
  Hf  Hf24  1  0.24997238  0.25058184  0.00004347  1
  Hf  Hf25  1  0.00000804  0.74840824  0.49995131  1
  Hf  Hf26  1  0.24933033  0.74936456  0.99999333  1
  Hf  Hf27  1  0.50000028  0.25018975  0.50010675  1
  Hf  Hf28  1  0.75002523  0.25056607  0.00008366  1
  Hf  Hf29  1  0.50000587  0.74986997  0.50006198  1
  Hf  Hf30  1  0.75067689  0.74937903  0.00002453  1
  Au  Au31  1  0.99995535  0.49855075  0.99947469  1
