# generated using pymatgen
data_Hf8Ta7ZnC16
_symmetry_space_group_name_H-M   'P 1'
_cell_length_a   7.54862861
_cell_length_b   9.04063463
_cell_length_c   6.53456932
_cell_angle_alpha   89.88565212
_cell_angle_beta   89.99887444
_cell_angle_gamma   90.00534176
_symmetry_Int_Tables_number   1
_chemical_formula_structural   Hf8Ta7ZnC16
_chemical_formula_sum   'Hf8 Ta7 Zn1 C16'
_cell_volume   445.94682837
_cell_formula_units_Z   1
loop_
 _symmetry_equiv_pos_site_id
 _symmetry_equiv_pos_as_xyz
  1  'x, y, z'
loop_
 _atom_site_type_symbol
 _atom_site_label
 _atom_site_symmetry_multiplicity
 _atom_site_fract_x
 _atom_site_fract_y
 _atom_site_fract_z
 _atom_site_occupancy
  C  C0  1  0.25435611  0.25044380  0.58710014  1
  C  C1  1  0.25197484  0.99893209  0.91614378  1
  C  C2  1  0.00091364  0.24670576  0.05947441  1
  C  C3  1  0.99968828  0.99751302  0.41191706  1
  C  C4  1  0.24794065  0.74973140  0.58379460  1
  C  C5  1  0.25246402  0.50070790  0.91663943  1
  C  C6  1  0.00027690  0.75180393  0.08091947  1
  C  C7  1  0.99965506  0.50446291  0.41383793  1
  C  C8  1  0.74588821  0.25046140  0.59053973  1
  C  C9  1  0.74785486  0.99900196  0.91778349  1
  C  C10  1  0.49879342  0.25029359  0.08991055  1
  C  C11  1  0.50048744  0.99965696  0.41965964  1
  C  C12  1  0.75219425  0.74974709  0.58518062  1
  C  C13  1  0.74744544  0.50069153  0.91836993  1
  C  C14  1  0.49958637  0.74931580  0.08905137  1
  C  C15  1  0.50044493  0.50053676  0.42159986  1
  Hf  Hf16  1  0.00012194  0.99938297  0.07761639  1
  Hf  Hf17  1  0.24871454  0.99888325  0.58402391  1
  Hf  Hf18  1  0.24930422  0.50135161  0.58399587  1
  Hf  Hf19  1  0.49966342  0.00002159  0.08518988  1
  Hf  Hf20  1  0.75142603  0.99891814  0.58528949  1
  Hf  Hf21  1  0.49961049  0.49977006  0.08860358  1
  Hf  Hf22  1  0.75079226  0.50136011  0.58530509  1
  Hf  Hf23  1  0.99958455  0.25562700  0.40566581  1
  Ta  Ta24  1  0.25005227  0.25406345  0.91559498  1
  Ta  Ta25  1  0.99990536  0.74638076  0.41010041  1
  Ta  Ta26  1  0.24834906  0.74498018  0.91783290  1
  Ta  Ta27  1  0.50045619  0.24998574  0.42141517  1
  Ta  Ta28  1  0.75001371  0.25423850  0.91739831  1
  Ta  Ta29  1  0.50023104  0.75000668  0.41928650  1
  Ta  Ta30  1  0.75147877  0.74497697  0.91868996  1
  Zn  Zn31  1  0.00033174  0.50004710  0.08206972  1
