# generated using pymatgen
data_HfTaC2
_symmetry_space_group_name_H-M   'P 1'
_cell_length_a   7.59614559
_cell_length_b   9.03014253
_cell_length_c   6.49909397
_cell_angle_alpha   90.03748980
_cell_angle_beta   89.99953355
_cell_angle_gamma   90.00001745
_symmetry_Int_Tables_number   1
_chemical_formula_structural   HfTaC2
_chemical_formula_sum   'Hf8 Ta8 C16'
_cell_volume   445.80055900
_cell_formula_units_Z   8
loop_
 _symmetry_equiv_pos_site_id
 _symmetry_equiv_pos_as_xyz
  1  'x, y, z'
loop_
 _atom_site_type_symbol
 _atom_site_label
 _atom_site_symmetry_multiplicity
 _atom_site_fract_x
 _atom_site_fract_y
 _atom_site_fract_z
 _atom_site_occupancy
  C  C0  1  0.25735578  0.25024406  0.58940648  1
  C  C1  1  0.25142663  0.99974991  0.91785558  1
  C  C2  1  0.00007900  0.25209506  0.06949868  1
  C  C3  1  0.99997378  0.99707845  0.41605805  1
  C  C4  1  0.24828427  0.74979459  0.58191628  1
  C  C5  1  0.24430542  0.50024268  0.92311623  1
  C  C6  1  0.00002470  0.74825797  0.08156593  1
  C  C7  1  0.99996627  0.50219802  0.40572754  1
  C  C8  1  0.74265055  0.25024507  0.58972117  1
  C  C9  1  0.74856667  0.99975308  0.91800072  1
  C  C10  1  0.49990237  0.25020472  0.08312473  1
  C  C11  1  0.50003794  0.99984896  0.41822656  1
  C  C12  1  0.75172830  0.74979446  0.58204057  1
  C  C13  1  0.75568621  0.50023920  0.92328282  1
  C  C14  1  0.49996667  0.74977269  0.08479804  1
  C  C15  1  0.50004388  0.50024054  0.41740939  1
  Hf  Hf16  1  0.00001814  0.99934967  0.07892340  1
  Hf  Hf17  1  0.25071598  0.99863083  0.58381495  1
  Hf  Hf18  1  0.25004402  0.50133416  0.58345708  1
  Hf  Hf19  1  0.49997314  0.00004042  0.08312458  1
  Hf  Hf20  1  0.74928985  0.99863201  0.58392593  1
  Hf  Hf21  1  0.49997747  0.50001545  0.08212385  1
  Hf  Hf22  1  0.74996502  0.50133379  0.58357335  1
  Hf  Hf23  1  0.99996507  0.25012693  0.41396558  1
  Ta  Ta24  1  0.25004523  0.25090981  0.91841484  1
  Ta  Ta25  1  0.99999208  0.74975728  0.41390405  1
  Ta  Ta26  1  0.24899041  0.74915531  0.91846316  1
  Ta  Ta27  1  0.50003757  0.25000201  0.41955502  1
  Ta  Ta28  1  0.74995038  0.25090434  0.91858378  1
  Ta  Ta29  1  0.50001730  0.74981073  0.41869889  1
  Ta  Ta30  1  0.75100587  0.74916200  0.91854051  1
  Ta  Ta31  1  0.00001405  0.50107582  0.07918226  1
