# generated using pymatgen
data_Hf8Ta7TcC16
_symmetry_space_group_name_H-M   'P 1'
_cell_length_a   9.08630880
_cell_length_b   9.07245913
_cell_length_c   4.55648738
_cell_angle_alpha   90.00017906
_cell_angle_beta   90.00000013
_cell_angle_gamma   89.99999994
_symmetry_Int_Tables_number   1
_chemical_formula_structural   Hf8Ta7TcC16
_chemical_formula_sum   'Hf8 Ta7 Tc1 C16'
_cell_volume   375.61479004
_cell_formula_units_Z   1
loop_
 _symmetry_equiv_pos_site_id
 _symmetry_equiv_pos_as_xyz
  1  'x, y, z'
loop_
 _atom_site_type_symbol
 _atom_site_label
 _atom_site_symmetry_multiplicity
 _atom_site_fract_x
 _atom_site_fract_y
 _atom_site_fract_z
 _atom_site_occupancy
  C  C0  1  0.25176816  0.25188026  0.50000314  1
  C  C1  1  0.25102216  0.99879878  0.00004458  1
  C  C2  1  -0.00000002  0.25098389  0.00007234  1
  C  C3  1  -0.00000000  0.99628133  0.50009407  1
  C  C4  1  0.24903353  0.74894797  0.49998220  1
  C  C5  1  0.24966587  0.50005813  0.99992565  1
  C  C6  1  -0.00000000  0.74828899  0.00005619  1
  C  C7  1  0.00000001  0.50599302  0.50006994  1
  C  C8  1  0.74823183  0.25188025  0.50000317  1
  C  C9  1  0.74897784  0.99879876  0.00004461  1
  C  C10  1  0.50000001  0.24926818  0.99996637  1
  C  C11  1  0.50000000  0.00028229  0.50000393  1
  C  C12  1  0.75096647  0.74894797  0.49998223  1
  C  C13  1  0.75033415  0.50005813  0.99992564  1
  C  C14  1  0.50000000  0.75005940  0.99992462  1
  C  C15  1  0.50000001  0.50033952  0.49987928  1
  Hf  Hf16  1  0.00000001  0.00306940  0.00009196  1
  Hf  Hf17  1  0.25047617  0.99915906  0.50005389  1
  Hf  Hf18  1  0.24768600  0.50072439  0.49994476  1
  Hf  Hf19  1  0.49999998  0.99931092  0.00000201  1
  Hf  Hf20  1  0.74952381  0.99915906  0.50005391  1
  Hf  Hf21  1  0.50000001  0.50047377  0.99988738  1
  Hf  Hf22  1  0.75231403  0.50072438  0.49994478  1
  Hf  Hf23  1  -0.00000000  0.25386111  0.50008095  1
  Ta  Ta24  1  0.24936856  0.25286178  0.00000253  1
  Ta  Ta25  1  0.00000000  0.74885026  0.50006763  1
  Ta  Ta26  1  0.24520038  0.74782293  0.99998858  1
  Ta  Ta27  1  0.50000000  0.24865989  0.49995799  1
  Ta  Ta28  1  0.75063142  0.25286180  0.00000255  1
  Ta  Ta29  1  0.50000000  0.75010334  0.49993386  1
  Ta  Ta30  1  0.75479960  0.74782292  0.99998857  1
  Tc  Tc31  1  0.00000002  0.49366815  0.00002068  1
