# generated using pymatgen
data_Hf8Ta7NiC16
_symmetry_space_group_name_H-M   'P 1'
_cell_length_a   7.51294840
_cell_length_b   8.97623366
_cell_length_c   6.56692544
_cell_angle_alpha   89.93137296
_cell_angle_beta   90.00016159
_cell_angle_gamma   90.00004902
_symmetry_Int_Tables_number   1
_chemical_formula_structural   Hf8Ta7NiC16
_chemical_formula_sum   'Hf8 Ta7 Ni1 C16'
_cell_volume   442.85987091
_cell_formula_units_Z   1
loop_
 _symmetry_equiv_pos_site_id
 _symmetry_equiv_pos_as_xyz
  1  'x, y, z'
loop_
 _atom_site_type_symbol
 _atom_site_label
 _atom_site_symmetry_multiplicity
 _atom_site_fract_x
 _atom_site_fract_y
 _atom_site_fract_z
 _atom_site_occupancy
  C  C0  1  0.25123681  0.25066930  0.58880416  1
  C  C1  1  0.25298733  0.99939652  0.91700464  1
  C  C2  1  0.00000761  0.25546315  0.05673579  1
  C  C3  1  0.99999723  0.99734095  0.40878416  1
  C  C4  1  0.24470722  0.74922765  0.58332861  1
  C  C5  1  0.25041639  0.50050217  0.91947422  1
  C  C6  1  0.00000251  0.74319423  0.07521807  1
  C  C7  1  0.99999570  0.50476714  0.40871842  1
  C  C8  1  0.74876733  0.25066934  0.58883479  1
  C  C9  1  0.74701008  0.99939711  0.91701960  1
  C  C10  1  0.49998755  0.25082160  0.09674652  1
  C  C11  1  0.50000466  0.99959603  0.42289013  1
  C  C12  1  0.75529518  0.74922793  0.58334407  1
  C  C13  1  0.74958149  0.50050204  0.91949133  1
  C  C14  1  0.49999447  0.74876290  0.09593896  1
  C  C15  1  0.50000422  0.50033522  0.42421890  1
  Hf  Hf16  1  0.00000129  0.99879048  0.07678794  1
  Hf  Hf17  1  0.24702416  0.99899119  0.58581759  1
  Hf  Hf18  1  0.24809854  0.50112676  0.58488513  1
  Hf  Hf19  1  0.49999685  0.00000816  0.08801288  1
  Hf  Hf20  1  0.75297818  0.99899152  0.58582876  1
  Hf  Hf21  1  0.49999635  0.49960721  0.09343501  1
  Hf  Hf22  1  0.75190243  0.50112691  0.58489773  1
  Hf  Hf23  1  0.99999604  0.25756892  0.40168791  1
  Ta  Ta24  1  0.25081820  0.25624091  0.91545049  1
  Ta  Ta25  1  0.99999873  0.74314159  0.40699046  1
  Ta  Ta26  1  0.24994799  0.74256597  0.91679962  1
  Ta  Ta27  1  0.50000376  0.24952971  0.42378860  1
  Ta  Ta28  1  0.74918292  0.25624251  0.91546554  1
  Ta  Ta29  1  0.50000205  0.75030889  0.42259516  1
  Ta  Ta30  1  0.75005077  0.74256597  0.91680783  1
  Ni  Ni31  1  0.00000593  0.50331999  0.07419695  1
