# generated using pymatgen
data_Hf8Ta7MnC16
_symmetry_space_group_name_H-M   'P 1'
_cell_length_a   7.49965299
_cell_length_b   8.99500901
_cell_length_c   6.51747581
_cell_angle_alpha   90.02579651
_cell_angle_beta   89.99880977
_cell_angle_gamma   89.99969374
_symmetry_Int_Tables_number   1
_chemical_formula_structural   Hf8Ta7MnC16
_chemical_formula_sum   'Hf8 Ta7 Mn1 C16'
_cell_volume   439.66526435
_cell_formula_units_Z   1
loop_
 _symmetry_equiv_pos_site_id
 _symmetry_equiv_pos_as_xyz
  1  'x, y, z'
loop_
 _atom_site_type_symbol
 _atom_site_label
 _atom_site_symmetry_multiplicity
 _atom_site_fract_x
 _atom_site_fract_y
 _atom_site_fract_z
 _atom_site_occupancy
  C  C0  1  0.25233277  0.25062996  0.41074834  1
  C  C1  1  0.25251619  0.00025199  0.08332994  1
  C  C2  1  0.99992467  0.25386933  0.93732674  1
  C  C3  1  0.00001551  0.99794856  0.58786378  1
  C  C4  1  0.24624662  0.74883155  0.41614531  1
  C  C5  1  0.23624995  0.50002062  0.07167084  1
  C  C6  1  0.99998670  0.74562002  0.92006537  1
  C  C7  1  0.00002992  0.50393428  0.60827439  1
  C  C8  1  0.74759858  0.25062722  0.41112568  1
  C  C9  1  0.74752637  0.00024789  0.08350712  1
  C  C10  1  0.50015589  0.25077671  0.90890952  1
  C  C11  1  0.49993052  0.99934359  0.57937956  1
  C  C12  1  0.75370735  0.74883140  0.41629714  1
  C  C13  1  0.76380230  0.50002180  0.07186637  1
  C  C14  1  0.50006019  0.74831012  0.91135189  1
  C  C15  1  0.49993420  0.50019730  0.57953037  1
  Hf  Hf16  1  0.99999294  0.99530149  0.92121017  1
  Hf  Hf17  1  0.24817710  0.99861670  0.41474622  1
  Hf  Hf18  1  0.24670567  0.50067779  0.41496904  1
  Hf  Hf19  1  0.50004900  0.00009661  0.91373684  1
  Hf  Hf20  1  0.75178665  0.99861016  0.41488376  1
  Hf  Hf21  1  0.50004687  0.49916272  0.91279110  1
  Hf  Hf22  1  0.75325643  0.50067966  0.41509711  1
  Hf  Hf23  1  0.00003036  0.25388220  0.59724710  1
  Ta  Ta24  1  0.24825772  0.25365165  0.08239059  1
  Ta  Ta25  1  0.00000124  0.74465112  0.59146975  1
  Ta  Ta26  1  0.24801195  0.74359464  0.08159171  1
  Ta  Ta27  1  0.49994098  0.24961738  0.57692043  1
  Ta  Ta28  1  0.75174953  0.25364017  0.08258557  1
  Ta  Ta29  1  0.49996583  0.74954199  0.57886372  1
  Ta  Ta30  1  0.75201182  0.74358806  0.08168543  1
  Mn  Mn31  1  0.99999821  0.51522537  0.92241912  1
