# generated using pymatgen
data_Hf8Ta7PtC16
_symmetry_space_group_name_H-M   'P 1'
_cell_length_a   7.57155089
_cell_length_b   8.97149039
_cell_length_c   6.57722644
_cell_angle_alpha   89.90210763
_cell_angle_beta   90.01455996
_cell_angle_gamma   90.00022595
_symmetry_Int_Tables_number   1
_chemical_formula_structural   Hf8Ta7PtC16
_chemical_formula_sum   'Hf8 Ta7 Pt1 C16'
_cell_volume   446.77780296
_cell_formula_units_Z   1
loop_
 _symmetry_equiv_pos_site_id
 _symmetry_equiv_pos_as_xyz
  1  'x, y, z'
loop_
 _atom_site_type_symbol
 _atom_site_label
 _atom_site_symmetry_multiplicity
 _atom_site_fract_x
 _atom_site_fract_y
 _atom_site_fract_z
 _atom_site_occupancy
  C  C0  1  0.25023271  0.25040311  0.58911536  1
  C  C1  1  0.25484444  0.99927203  0.91704782  1
  C  C2  1  0.00026717  0.25255776  0.05437999  1
  C  C3  1  0.99971994  0.99699815  0.40901151  1
  C  C4  1  0.24390456  0.74975026  0.58369762  1
  C  C5  1  0.26343690  0.50033812  0.91412812  1
  C  C6  1  0.00032389  0.74503582  0.07307801  1
  C  C7  1  0.99959262  0.50499590  0.41754466  1
  C  C8  1  0.74916240  0.25039004  0.58910038  1
  C  C9  1  0.74563871  0.99926769  0.91700541  1
  C  C10  1  0.50035746  0.25037167  0.09955295  1
  C  C11  1  0.49970124  0.99976779  0.42466913  1
  C  C12  1  0.75547196  0.74976976  0.58374131  1
  C  C13  1  0.73717960  0.50034652  0.91428137  1
  C  C14  1  0.50032723  0.74967226  0.09837072  1
  C  C15  1  0.49970802  0.50042871  0.42779830  1
  Hf  Hf16  1  0.00021048  0.99950531  0.07617565  1
  Hf  Hf17  1  0.24705130  0.99912338  0.58525182  1
  Hf  Hf18  1  0.24906835  0.50142467  0.58348354  1
  Hf  Hf19  1  0.50024619  0.00013852  0.08957117  1
  Hf  Hf20  1  0.75256232  0.99911569  0.58521976  1
  Hf  Hf21  1  0.50026835  0.49977348  0.09816472  1
  Hf  Hf22  1  0.75043823  0.50143718  0.58357795  1
  Hf  Hf23  1  0.99975840  0.25703649  0.40392901  1
  Ta  Ta24  1  0.25371922  0.25526705  0.91382864  1
  Ta  Ta25  1  0.99978898  0.74495863  0.41005798  1
  Ta  Ta26  1  0.25261057  0.74432034  0.91578115  1
  Ta  Ta27  1  0.49978474  0.24868508  0.42528833  1
  Ta  Ta28  1  0.74663213  0.25527001  0.91385314  1
  Ta  Ta29  1  0.49979160  0.75144118  0.42448536  1
  Ta  Ta30  1  0.74775329  0.74431815  0.91583106  1
  Pt  Pt31  1  0.00044701  0.49881924  0.06297805  1
