# generated using pymatgen
data_Hf8Ta7NbC16
_symmetry_space_group_name_H-M   'P 1'
_cell_length_a   9.10629281
_cell_length_b   9.09795486
_cell_length_c   4.56410632
_cell_angle_alpha   90.00004921
_cell_angle_beta   90.00000464
_cell_angle_gamma   89.99999030
_symmetry_Int_Tables_number   1
_chemical_formula_structural   Hf8Ta7NbC16
_chemical_formula_sum   'Hf8 Ta7 Nb1 C16'
_cell_volume   378.13000566
_cell_formula_units_Z   1
loop_
 _symmetry_equiv_pos_site_id
 _symmetry_equiv_pos_as_xyz
  1  'x, y, z'
loop_
 _atom_site_type_symbol
 _atom_site_label
 _atom_site_symmetry_multiplicity
 _atom_site_fract_x
 _atom_site_fract_y
 _atom_site_fract_z
 _atom_site_occupancy
  C  C0  1  0.25274380  0.25095593  0.50001112  1
  C  C1  1  0.25060491  0.99913402  0.99999045  1
  C  C2  1  0.99999845  0.25252116  0.99998593  1
  C  C3  1  0.99999796  0.99583022  0.49996499  1
  C  C4  1  0.24966619  0.74939527  0.49999116  1
  C  C5  1  0.24834866  0.50046439  0.00001147  1
  C  C6  1  0.00000146  0.74827429  0.99996609  1
  C  C7  1  0.00000210  0.50334768  0.49998856  1
  C  C8  1  0.74725314  0.25095650  0.50000891  1
  C  C9  1  0.74939025  0.99913605  0.99998835  1
  C  C10  1  0.49999810  0.25006046  0.00003220  1
  C  C11  1  0.49999744  0.99968991  0.50001573  1
  C  C12  1  0.75033683  0.74939708  0.49998917  1
  C  C13  1  0.75165675  0.50046550  0.00000952  1
  C  C14  1  0.50000184  0.74999600  0.00001462  1
  C  C15  1  0.50000271  0.50010489  0.50003332  1
  Hf  Hf16  1  0.99999832  0.99971224  0.99996699  1
  Hf  Hf17  1  0.25015324  0.99982731  0.49999008  1
  Hf  Hf18  1  0.24929569  0.49999299  0.50001215  1
  Hf  Hf19  1  0.49999705  0.00012484  0.00001276  1
  Hf  Hf20  1  0.74984213  0.99982943  0.49998815  1
  Hf  Hf21  1  0.50000328  0.49984823  0.00003102  1
  Hf  Hf22  1  0.75070884  0.49999336  0.50001026  1
  Hf  Hf23  1  0.99999893  0.25112061  0.49998541  1
  Ta  Ta24  1  0.24918850  0.25084856  0.00000610  1
  Ta  Ta25  1  0.00000011  0.74926072  0.49996532  1
  Ta  Ta26  1  0.24811612  0.74944343  0.99999271  1
  Ta  Ta27  1  0.49999832  0.24971456  0.50003326  1
  Ta  Ta28  1  0.75080882  0.25084720  0.00000409  1
  Ta  Ta29  1  0.50000235  0.75013010  0.50001749  1
  Ta  Ta30  1  0.75188621  0.74944659  0.99999069  1
  Nb  Nb31  1  0.00000149  0.50013052  -0.00000805  1
