# generated using pymatgen
data_Hf8Ta7OsC16
_symmetry_space_group_name_H-M   'P 1'
_cell_length_a   7.53802786
_cell_length_b   8.99577764
_cell_length_c   6.52795898
_cell_angle_alpha   89.99403762
_cell_angle_beta   90.00019994
_cell_angle_gamma   90.00001369
_symmetry_Int_Tables_number   1
_chemical_formula_structural   Hf8Ta7OsC16
_chemical_formula_sum   'Hf8 Ta7 Os1 C16'
_cell_volume   442.66365361
_cell_formula_units_Z   1
loop_
 _symmetry_equiv_pos_site_id
 _symmetry_equiv_pos_as_xyz
  1  'x, y, z'
loop_
 _atom_site_type_symbol
 _atom_site_label
 _atom_site_symmetry_multiplicity
 _atom_site_fract_x
 _atom_site_fract_y
 _atom_site_fract_z
 _atom_site_occupancy
  C  C0  1  0.25390294  0.25040260  0.58961621  1
  C  C1  1  0.25293606  0.99982156  0.91632615  1
  C  C2  1  0.00000481  0.25157172  0.06462024  1
  C  C3  1  0.99999833  0.99725415  0.41369704  1
  C  C4  1  0.24667297  0.74920460  0.58333724  1
  C  C5  1  0.24443907  0.49988592  0.92361418  1
  C  C6  1  0.00000174  0.74969366  0.07923581  1
  C  C7  1  0.99999631  0.50363520  0.40000237  1
  C  C8  1  0.74609970  0.25040262  0.58963565  1
  C  C9  1  0.74706229  0.99982153  0.91633541  1
  C  C10  1  0.49999296  0.25058952  0.08938263  1
  C  C11  1  0.50000285  0.99943521  0.42040960  1
  C  C12  1  0.75332933  0.74920466  0.58334695  1
  C  C13  1  0.75555790  0.49988578  0.92362645  1
  C  C14  1  0.49999697  0.74880592  0.08868711  1
  C  C15  1  0.50000334  0.50003598  0.42105181  1
  Hf  Hf16  1  0.00000096  0.99901179  0.07856984  1
  Hf  Hf17  1  0.24868137  0.99857174  0.58463066  1
  Hf  Hf18  1  0.24834248  0.50108193  0.58441166  1
  Hf  Hf19  1  0.49999837  0.00011993  0.08607325  1
  Hf  Hf20  1  0.75132046  0.99857181  0.58463767  1
  Hf  Hf21  1  0.49999769  0.49964737  0.08923015  1
  Hf  Hf22  1  0.75165967  0.50108197  0.58442015  1
  Hf  Hf23  1  0.99999766  0.25419384  0.40649574  1
  Ta  Ta24  1  0.25013053  0.25391764  0.91687441  1
  Ta  Ta25  1  0.99999940  0.74571249  0.40913162  1
  Ta  Ta26  1  0.24880320  0.74490895  0.91805310  1
  Ta  Ta27  1  0.50000259  0.24950730  0.42256951  1
  Ta  Ta28  1  0.74986919  0.25391813  0.91688439  1
  Ta  Ta29  1  0.50000137  0.75033519  0.42123910  1
  Ta  Ta30  1  0.75119576  0.74490917  0.91805843  1
  Os  Os31  1  0.00000171  0.50486017  0.07579548  1
