# generated using pymatgen
data_Hf8Ta7VC16
_symmetry_space_group_name_H-M   'P 1'
_cell_length_a   9.08132572
_cell_length_b   9.06767560
_cell_length_c   4.55119916
_cell_angle_alpha   90.00000113
_cell_angle_beta   90.00000025
_cell_angle_gamma   90.00000051
_symmetry_Int_Tables_number   1
_chemical_formula_structural   Hf8Ta7VC16
_chemical_formula_sum   'Hf8 Ta7 V1 C16'
_cell_volume   374.77539284
_cell_formula_units_Z   1
loop_
 _symmetry_equiv_pos_site_id
 _symmetry_equiv_pos_as_xyz
  1  'x, y, z'
loop_
 _atom_site_type_symbol
 _atom_site_label
 _atom_site_symmetry_multiplicity
 _atom_site_fract_x
 _atom_site_fract_y
 _atom_site_fract_z
 _atom_site_occupancy
  C  C0  1  0.25226597  0.25159169  0.50000000  1
  C  C1  1  0.25027861  0.99904712  -0.00000001  1
  C  C2  1  0.00000000  0.25628716  0.00000000  1
  C  C3  1  -0.00000000  0.99598996  0.50000000  1
  C  C4  1  0.24933851  0.74884912  0.49999999  1
  C  C5  1  0.24472540  0.50038843  -0.00000000  1
  C  C6  1  -0.00000001  0.74402516  0.00000000  1
  C  C7  1  -0.00000000  0.50419259  0.49999999  1
  C  C8  1  0.74773403  0.25159169  0.50000000  1
  C  C9  1  0.74972139  0.99904713  -0.00000000  1
  C  C10  1  0.49999999  0.25024143  -0.00000000  1
  C  C11  1  0.50000000  0.99968568  0.50000000  1
  C  C12  1  0.75066149  0.74884912  0.50000000  1
  C  C13  1  0.75527461  0.50038843  0.00000000  1
  C  C14  1  0.50000000  0.74969306  -0.00000000  1
  C  C15  1  0.50000000  0.50013519  0.50000000  1
  Hf  Hf16  1  0.00000000  0.99996267  0.00000000  1
  Hf  Hf17  1  0.24953349  0.99969266  0.50000000  1
  Hf  Hf18  1  0.24693649  0.50027016  0.50000000  1
  Hf  Hf19  1  0.50000000  0.99985609  1.00000000  1
  Hf  Hf20  1  0.75046652  0.99969267  0.50000000  1
  Hf  Hf21  1  0.50000001  0.50003201  -0.00000000  1
  Hf  Hf22  1  0.75306351  0.50027016  0.50000000  1
  Hf  Hf23  1  0.00000000  0.25409872  0.50000000  1
  Ta  Ta24  1  0.24651618  0.25313278  -0.00000000  1
  Ta  Ta25  1  1.00000000  0.74639412  0.50000000  1
  Ta  Ta26  1  0.24508434  0.74700746  0.00000000  1
  Ta  Ta27  1  0.50000000  0.25041293  0.50000000  1
  Ta  Ta28  1  0.75348383  0.25313278  -0.00000000  1
  Ta  Ta29  1  0.50000001  0.74930909  0.50000000  1
  Ta  Ta30  1  0.75491566  0.74700746  -0.00000001  1
  V  V31  1  0.99999999  0.49972525  0.00000004  1
