# generated using pymatgen
data_Hf8ZrTa7C16
_symmetry_space_group_name_H-M   'P 1'
_cell_length_a   9.14107476
_cell_length_b   9.11700942
_cell_length_c   4.57953852
_cell_angle_alpha   89.99999975
_cell_angle_beta   90.00000013
_cell_angle_gamma   89.99999956
_symmetry_Int_Tables_number   1
_chemical_formula_structural   Hf8ZrTa7C16
_chemical_formula_sum   'Hf8 Zr1 Ta7 C16'
_cell_volume   381.65537290
_cell_formula_units_Z   1
loop_
 _symmetry_equiv_pos_site_id
 _symmetry_equiv_pos_as_xyz
  1  'x, y, z'
loop_
 _atom_site_type_symbol
 _atom_site_label
 _atom_site_symmetry_multiplicity
 _atom_site_fract_x
 _atom_site_fract_y
 _atom_site_fract_z
 _atom_site_occupancy
  C  C0  1  0.25364825  0.24992106  0.50000001  1
  C  C1  1  0.25086781  0.99922154  0.00000001  1
  C  C2  1  0.00000031  0.24855547  -0.00000002  1
  C  C3  1  0.00000017  0.99570658  0.50000000  1
  C  C4  1  0.25074326  0.75008327  0.50000000  1
  C  C5  1  0.25222238  0.50070941  0.00000001  1
  C  C6  1  0.00000025  0.75135252  -0.00000001  1
  C  C7  1  0.00000023  0.50454124  0.50000000  1
  C  C8  1  0.74635163  0.24992108  0.49999998  1
  C  C9  1  0.74913221  0.99922159  -0.00000005  1
  C  C10  1  0.49999977  0.24991779  0.00000006  1
  C  C11  1  0.49999990  0.99974255  0.50000004  1
  C  C12  1  0.74925671  0.75008333  0.50000000  1
  C  C13  1  0.74777753  0.50070938  0.99999998  1
  C  C14  1  0.49999975  0.75007732  -0.00000005  1
  C  C15  1  0.49999985  0.50022989  0.49999997  1
  Hf  Hf16  1  0.00000002  0.99945245  -0.00000005  1
  Hf  Hf17  1  0.25057087  0.99974718  0.49999999  1
  Hf  Hf18  1  0.25083126  0.50025645  0.49999996  1
  Hf  Hf19  1  0.49999997  0.00014562  0.00000001  1
  Hf  Hf20  1  0.74942914  0.99974717  0.50000002  1
  Hf  Hf21  1  0.49999999  0.49982387  0.00000000  1
  Hf  Hf22  1  0.74916866  0.50025637  0.50000008  1
  Hf  Hf23  1  -0.00000006  0.24969817  0.50000008  1
  Ta  Ta24  1  0.25054900  0.24992979  -0.00000010  1
  Ta  Ta25  1  0.00000011  0.75016388  0.50000000  1
  Ta  Ta26  1  0.25051204  0.75010376  -0.00000007  1
  Ta  Ta27  1  0.49999997  0.24990644  0.50000002  1
  Ta  Ta28  1  0.74945094  0.24992982  0.00000004  1
  Ta  Ta29  1  0.49999989  0.75009655  0.49999997  1
  Ta  Ta30  1  0.74948800  0.75010382  -0.00000001  1
  Zr  Zr31  1  0.00000023  0.50064461  0.00000007  1
