# generated using pymatgen
data_Hf8Ta7WC16
_symmetry_space_group_name_H-M   'P 1'
_cell_length_a   9.09069434
_cell_length_b   9.08383365
_cell_length_c   4.55468917
_cell_angle_alpha   90.00003559
_cell_angle_beta   90.00095579
_cell_angle_gamma   90.00048511
_symmetry_Int_Tables_number   1
_chemical_formula_structural   Hf8Ta7WC16
_chemical_formula_sum   'Hf8 Ta7 W1 C16'
_cell_volume   376.11873987
_cell_formula_units_Z   1
loop_
 _symmetry_equiv_pos_site_id
 _symmetry_equiv_pos_as_xyz
  1  'x, y, z'
loop_
 _atom_site_type_symbol
 _atom_site_label
 _atom_site_symmetry_multiplicity
 _atom_site_fract_x
 _atom_site_fract_y
 _atom_site_fract_z
 _atom_site_occupancy
  C  C0  1  0.25229844  0.25131810  0.50001795  1
  C  C1  1  0.25096122  0.99928044  0.00004041  1
  C  C2  1  -0.00000086  0.25419633  0.99997482  1
  C  C3  1  0.00000787  0.99612879  0.49998492  1
  C  C4  1  0.24907459  0.74909023  0.50006402  1
  C  C5  1  0.24668668  0.50037163  0.00005231  1
  C  C6  1  0.00000177  0.74667600  -0.00001276  1
  C  C7  1  0.99999970  0.50328419  0.49998649  1
  C  C8  1  0.74771739  0.25131511  0.49993114  1
  C  C9  1  0.74903688  0.99928239  0.99994564  1
  C  C10  1  0.49998998  0.24968958  0.00001177  1
  C  C11  1  0.50000038  0.99991943  0.50001639  1
  C  C12  1  0.75092550  0.74909324  0.49997545  1
  C  C13  1  0.75330993  0.50037546  0.99995191  1
  C  C14  1  0.49998010  0.75008552  0.00002525  1
  C  C15  1  0.50000147  0.50003076  0.50001532  1
  Hf  Hf16  1  0.00000580  0.00016115  0.99997857  1
  Hf  Hf17  1  0.25054716  0.99957254  0.50004952  1
  Hf  Hf18  1  0.24884573  0.50006806  0.50005395  1
  Hf  Hf19  1  0.49999550  0.99983758  0.00000754  1
  Hf  Hf20  1  0.74946031  0.99957184  0.49996529  1
  Hf  Hf21  1  0.50000086  0.49994738  0.00001597  1
  Hf  Hf22  1  0.75115355  0.50007019  0.49995576  1
  Hf  Hf23  1  0.99999910  0.25193855  0.49998321  1
  Ta  Ta24  1  0.24979165  0.25078276  0.00003349  1
  Ta  Ta25  1  -0.00000281  0.74926069  0.49999647  1
  Ta  Ta26  1  0.24807975  0.74947200  0.00006169  1
  Ta  Ta27  1  0.50001212  0.24919432  0.50000832  1
  Ta  Ta28  1  0.75020729  0.25077160  0.99994524  1
  Ta  Ta29  1  0.49999919  0.75033851  0.50002631  1
  Ta  Ta30  1  0.75191855  0.74948440  0.99996722  1
  W  W31  1  0.99999522  0.49939120  -0.00002959  1
