# generated using pymatgen
data_Hf8Ta7PdC16
_symmetry_space_group_name_H-M   'P 1'
_cell_length_a   7.54829056
_cell_length_b   8.98286518
_cell_length_c   6.59410514
_cell_angle_alpha   89.90895549
_cell_angle_beta   89.96951477
_cell_angle_gamma   89.99587053
_symmetry_Int_Tables_number   1
_chemical_formula_structural   Hf8Ta7PdC16
_chemical_formula_sum   'Hf8 Ta7 Pd1 C16'
_cell_volume   447.11449302
_cell_formula_units_Z   1
loop_
 _symmetry_equiv_pos_site_id
 _symmetry_equiv_pos_as_xyz
  1  'x, y, z'
loop_
 _atom_site_type_symbol
 _atom_site_label
 _atom_site_symmetry_multiplicity
 _atom_site_fract_x
 _atom_site_fract_y
 _atom_site_fract_z
 _atom_site_occupancy
  C  C0  1  0.25125329  0.25035184  0.59048161  1
  C  C1  1  0.25407374  0.99927579  0.91740359  1
  C  C2  1  0.99882801  0.25095039  0.05458632  1
  C  C3  1  0.00073060  0.99716481  0.40899209  1
  C  C4  1  0.24505954  0.74978558  0.58438029  1
  C  C5  1  0.26227634  0.50045396  0.91405605  1
  C  C6  1  0.99920484  0.74713375  0.07379554  1
  C  C7  1  0.00108892  0.50511253  0.42185904  1
  C  C8  1  0.74919496  0.25036538  0.58722348  1
  C  C9  1  0.74551664  0.99921488  0.91571184  1
  C  C10  1  0.50091054  0.25047826  0.09919081  1
  C  C11  1  0.49988010  0.99973163  0.42359306  1
  C  C12  1  0.75556234  0.74973458  0.58234598  1
  C  C13  1  0.73692693  0.50046455  0.91171429  1
  C  C14  1  0.50029438  0.74943316  0.09808161  1
  C  C15  1  0.49992064  0.50043148  0.42543287  1
  Hf  Hf16  1  0.99958904  0.99940214  0.07671332  1
  Hf  Hf17  1  0.24732194  0.99910547  0.58623457  1
  Hf  Hf18  1  0.25040937  0.50140613  0.58496282  1
  Hf  Hf19  1  0.50001540  0.00014256  0.08905598  1
  Hf  Hf20  1  0.75300394  0.99910244  0.58501723  1
  Hf  Hf21  1  0.50009309  0.49968864  0.09691273  1
  Hf  Hf22  1  0.75028114  0.50136917  0.58324111  1
  Hf  Hf23  1  0.00076009  0.25750101  0.40383117  1
  Ta  Ta24  1  0.25269643  0.25571200  0.91463881  1
  Ta  Ta25  1  0.00044170  0.74389607  0.40933953  1
  Ta  Ta26  1  0.25179120  0.74368226  0.91620250  1
  Ta  Ta27  1  0.49992938  0.24877681  0.42434036  1
  Ta  Ta28  1  0.74663629  0.25556223  0.91305653  1
  Ta  Ta29  1  0.50006208  0.75135851  0.42326264  1
  Ta  Ta30  1  0.74772203  0.74375170  0.91519888  1
  Pd  Pd31  1  0.99852505  0.49946038  0.06914331  1
