# generated using pymatgen
data_Hf8Ta7RhC16
_symmetry_space_group_name_H-M   'P 1'
_cell_length_a   7.55370956
_cell_length_b   8.97513270
_cell_length_c   6.55996459
_cell_angle_alpha   89.93609825
_cell_angle_beta   90.00051855
_cell_angle_gamma   90.00005758
_symmetry_Int_Tables_number   1
_chemical_formula_structural   Hf8Ta7RhC16
_chemical_formula_sum   'Hf8 Ta7 Rh1 C16'
_cell_volume   444.73610240
_cell_formula_units_Z   1
loop_
 _symmetry_equiv_pos_site_id
 _symmetry_equiv_pos_as_xyz
  1  'x, y, z'
loop_
 _atom_site_type_symbol
 _atom_site_label
 _atom_site_symmetry_multiplicity
 _atom_site_fract_x
 _atom_site_fract_y
 _atom_site_fract_z
 _atom_site_occupancy
  C  C0  1  0.25203247  0.25052035  0.58906013  1
  C  C1  1  0.25346014  0.99936597  0.91689279  1
  C  C2  1  0.00001962  0.25237921  0.05891584  1
  C  C3  1  0.99999097  0.99688601  0.41128625  1
  C  C4  1  0.24494602  0.74952492  0.58329175  1
  C  C5  1  0.25637252  0.50032133  0.91648076  1
  C  C6  1  0.00001124  0.74602811  0.07510139  1
  C  C7  1  0.99998478  0.50474788  0.41248457  1
  C  C8  1  0.74796981  0.25052028  0.58912880  1
  C  C9  1  0.74653852  0.99936660  0.91692693  1
  C  C10  1  0.49997571  0.25058937  0.09532262  1
  C  C11  1  0.50000788  0.99968913  0.42278030  1
  C  C12  1  0.75505423  0.74952548  0.58333453  1
  C  C13  1  0.74362858  0.50032103  0.91652778  1
  C  C14  1  0.49998759  0.74923223  0.09529639  1
  C  C15  1  0.50000842  0.50036859  0.42532373  1
  Hf  Hf16  1  0.00000451  0.99955748  0.07754496  1
  Hf  Hf17  1  0.24761949  0.99903926  0.58547770  1
  Hf  Hf18  1  0.24881592  0.50126781  0.58317042  1
  Hf  Hf19  1  0.49999577  0.00008606  0.08747116  1
  Hf  Hf20  1  0.75238233  0.99903930  0.58550262  1
  Hf  Hf21  1  0.49999259  0.49974492  0.09461082  1
  Hf  Hf22  1  0.75118146  0.50126846  0.58320475  1
  Hf  Hf23  1  0.99998907  0.25686515  0.40443068  1
  Ta  Ta24  1  0.25141028  0.25610797  0.91551383  1
  Ta  Ta25  1  0.99999501  0.74439688  0.40877597  1
  Ta  Ta26  1  0.25045841  0.74336062  0.91706026  1
  Ta  Ta27  1  0.50000592  0.24903644  0.42398970  1
  Ta  Ta28  1  0.74859495  0.25611107  0.91554714  1
  Ta  Ta29  1  0.50000271  0.75095281  0.42317519  1
  Ta  Ta30  1  0.74954379  0.74335917  0.91708063  1
  Rh  Rh31  1  0.00001930  0.50042008  0.06928957  1
