# generated using pymatgen
data_Hf8Ta7TiC16
_symmetry_space_group_name_H-M   'P 1'
_cell_length_a   9.09759109
_cell_length_b   9.07656351
_cell_length_c   4.55974345
_cell_angle_alpha   90.00002739
_cell_angle_beta   89.99997324
_cell_angle_gamma   90.00000732
_symmetry_Int_Tables_number   1
_chemical_formula_structural   Hf8Ta7TiC16
_chemical_formula_sum   'Hf8 Ta7 Ti1 C16'
_cell_volume   376.52019214
_cell_formula_units_Z   1
loop_
 _symmetry_equiv_pos_site_id
 _symmetry_equiv_pos_as_xyz
  1  'x, y, z'
loop_
 _atom_site_type_symbol
 _atom_site_label
 _atom_site_symmetry_multiplicity
 _atom_site_fract_x
 _atom_site_fract_y
 _atom_site_fract_z
 _atom_site_occupancy
  C  C0  1  0.25285963  0.25078723  0.49999229  1
  C  C1  1  0.25029052  0.99918621  0.99999892  1
  C  C2  1  0.00000161  0.25464227  0.00003197  1
  C  C3  1  0.99999919  0.99580301  0.50002593  1
  C  C4  1  0.25014509  0.74928504  0.50000232  1
  C  C5  1  0.24642179  0.50062591  0.99999826  1
  C  C6  1  -0.00000278  0.74528346  0.00002679  1
  C  C7  1  0.99999842  0.50436651  0.50004097  1
  C  C8  1  0.74714503  0.25078486  0.49999869  1
  C  C9  1  0.74970943  0.99918904  0.00000112  1
  C  C10  1  0.50000153  0.25037752  0.99996746  1
  C  C11  1  0.50000075  0.99971290  0.49997151  1
  C  C12  1  0.74985173  0.74928402  0.49999978  1
  C  C13  1  0.75357930  0.50062099  0.00000088  1
  C  C14  1  0.49999890  0.74967077  0.99997366  1
  C  C15  1  0.50000127  0.50024337  0.49996570  1
  Hf  Hf16  1  0.99999881  0.99948462  0.00002665  1
  Hf  Hf17  1  0.24989381  0.99971597  0.50000041  1
  Hf  Hf18  1  0.24814916  0.50034305  0.49999677  1
  Hf  Hf19  1  0.50000118  0.99992784  0.99997524  1
  Hf  Hf20  1  0.75010558  0.99972342  0.50000223  1
  Hf  Hf21  1  0.50000267  0.50004581  0.99996952  1
  Hf  Hf22  1  0.75185007  0.50033305  0.49999916  1
  Hf  Hf23  1  0.00000272  0.25270704  0.50003166  1
  Ta  Ta24  1  0.24770137  0.25207698  0.00000162  1
  Ta  Ta25  1  0.99998820  0.74738827  0.50002912  1
  Ta  Ta26  1  0.24709751  0.74788001  0.00000211  1
  Ta  Ta27  1  0.50000014  0.25070220  0.49996449  1
  Ta  Ta28  1  0.75230310  0.25207402  0.00000615  1
  Ta  Ta29  1  0.50000953  0.74924394  0.49997138  1
  Ta  Ta30  1  0.75289905  0.74787983  0.00000138  1
  Ti  Ti31  1  0.99999561  0.50061081  0.00002587  1
