# generated using pymatgen
data_Hf8Ta7MoC16
_symmetry_space_group_name_H-M   'P 1'
_cell_length_a   9.03556715
_cell_length_b   7.60475221
_cell_length_c   6.45597965
_cell_angle_alpha   90.06093164
_cell_angle_beta   90.00000169
_cell_angle_gamma   90.00000053
_symmetry_Int_Tables_number   1
_chemical_formula_structural   Hf8Ta7MoC16
_chemical_formula_sum   'Hf8 Ta7 Mo1 C16'
_cell_volume   443.61108806
_cell_formula_units_Z   1
loop_
 _symmetry_equiv_pos_site_id
 _symmetry_equiv_pos_as_xyz
  1  'x, y, z'
loop_
 _atom_site_type_symbol
 _atom_site_label
 _atom_site_symmetry_multiplicity
 _atom_site_fract_x
 _atom_site_fract_y
 _atom_site_fract_z
 _atom_site_occupancy
  C  C0  1  0.25178982  0.25289547  0.40643571  1
  C  C1  1  0.25006981  0.99814186  0.92826970  1
  C  C2  1  -0.00000011  0.25809089  0.07117706  1
  C  C3  1  -0.00000005  0.99231586  0.57467959  1
  C  C4  1  0.25005499  0.74767922  0.41010989  1
  C  C5  1  0.24994770  0.50121346  0.93119474  1
  C  C6  1  -0.00000007  0.74201655  0.08302840  1
  C  C7  1  -0.00000002  0.50844200  0.59931895  1
  C  C8  1  0.74821022  0.25289544  0.40643562  1
  C  C9  1  0.74993014  0.99814182  0.92826976  1
  C  C10  1  0.50000013  0.24841949  0.08823122  1
  C  C11  1  0.50000004  0.00229627  0.56629923  1
  C  C12  1  0.74994499  0.74767921  0.41010977  1
  C  C13  1  0.75005235  0.50121336  0.93119490  1
  C  C14  1  0.50000011  0.75067570  0.09469047  1
  C  C15  1  0.50000005  0.49871012  0.56904818  1
  Hf  Hf16  1  0.00000002  0.99833821  0.91919254  1
  Hf  Hf17  1  0.25113928  0.99945266  0.57639888  1
  Hf  Hf18  1  0.24915108  0.50110075  0.58625266  1
  Hf  Hf19  1  0.50000000  0.99821116  0.92145134  1
  Hf  Hf20  1  0.74886070  0.99945265  0.57639877  1
  Hf  Hf21  1  0.50000008  0.50075327  0.92157856  1
  Hf  Hf22  1  0.75084893  0.50110075  0.58625269  1
  Hf  Hf23  1  -0.00000001  0.25324501  0.41526743  1
  Ta  Ta24  1  0.24676235  0.25207106  0.07975400  1
  Ta  Ta25  1  0.99999994  0.74721682  0.41779633  1
  Ta  Ta26  1  0.24500367  0.74760625  0.08445909  1
  Ta  Ta27  1  0.50000005  0.25129610  0.41259854  1
  Ta  Ta28  1  0.75323758  0.25207114  0.07975390  1
  Ta  Ta29  1  0.50000004  0.74879060  0.41655896  1
  Ta  Ta30  1  0.75499623  0.74760618  0.08445908  1
  Mo  Mo31  1  -0.00000009  0.50086073  0.92333409  1
