# generated using pymatgen
data_Hf8Ta7CuC16
_symmetry_space_group_name_H-M   'P 1'
_cell_length_a   7.52975229
_cell_length_b   9.01057938
_cell_length_c   6.56102263
_cell_angle_alpha   90.09827996
_cell_angle_beta   89.99737101
_cell_angle_gamma   90.00100201
_symmetry_Int_Tables_number   1
_chemical_formula_structural   Hf8Ta7CuC16
_chemical_formula_sum   'Hf8 Ta7 Cu1 C16'
_cell_volume   445.14787294
_cell_formula_units_Z   1
loop_
 _symmetry_equiv_pos_site_id
 _symmetry_equiv_pos_as_xyz
  1  'x, y, z'
loop_
 _atom_site_type_symbol
 _atom_site_label
 _atom_site_symmetry_multiplicity
 _atom_site_fract_x
 _atom_site_fract_y
 _atom_site_fract_z
 _atom_site_occupancy
  C  C0  1  0.25374752  0.25049457  0.41169398  1
  C  C1  1  0.25240275  0.99885349  0.08357929  1
  C  C2  1  0.00011067  0.24776618  0.94089948  1
  C  C3  1  0.99996564  0.99760082  0.58876987  1
  C  C4  1  0.24759148  0.74941394  0.41627604  1
  C  C5  1  0.25361978  0.50062490  0.08336048  1
  C  C6  1  0.00002142  0.75007330  0.91997652  1
  C  C7  1  0.99995428  0.50461826  0.58348026  1
  C  C8  1  0.74632372  0.25049594  0.41122679  1
  C  C9  1  0.74754906  0.99886625  0.08336185  1
  C  C10  1  0.49981261  0.25035733  0.90805952  1
  C  C11  1  0.50007412  0.99957247  0.57992887  1
  C  C12  1  0.75244865  0.74941802  0.41609228  1
  C  C13  1  0.74633627  0.50062414  0.08312536  1
  C  C14  1  0.49993250  0.74903970  0.90908730  1
  C  C15  1  0.50006737  0.50041084  0.57851819  1
  Hf  Hf16  1  0.00001434  0.99888446  0.92280980  1
  Hf  Hf17  1  0.24780433  0.99880208  0.41465294  1
  Hf  Hf18  1  0.24967568  0.50119804  0.41487611  1
  Hf  Hf19  1  0.49994986  -0.00000842  0.91470538  1
  Hf  Hf20  1  0.75223885  0.99880987  0.41448980  1
  Hf  Hf21  1  0.49994149  0.49959435  0.91008818  1
  Hf  Hf22  1  0.75035511  0.50119882  0.41469639  1
  Hf  Hf23  1  0.99994707  0.25772137  0.59736983  1
  Ta  Ta24  1  0.24947500  0.25609558  0.08380373  1
  Ta  Ta25  1  0.99999018  0.74323166  0.59243703  1
  Ta  Ta26  1  0.24856693  0.74269317  0.08220207  1
  Ta  Ta27  1  0.50006547  0.24988580  0.57819524  1
  Ta  Ta28  1  0.75052245  0.25612195  0.08356969  1
  Ta  Ta29  1  0.50003448  0.74990016  0.58038858  1
  Ta  Ta30  1  0.75139499  0.74269757  0.08209378  1
  Cu  Cu31  1  0.00006592  0.50494341  0.91618534  1
