# generated using pymatgen
data_Hf8Ta7IrC16
_symmetry_space_group_name_H-M   'P 1'
_cell_length_a   8.99281326
_cell_length_b   7.61310835
_cell_length_c   6.49697833
_cell_angle_alpha   90.44125547
_cell_angle_beta   90.00000159
_cell_angle_gamma   89.99999865
_symmetry_Int_Tables_number   1
_chemical_formula_structural   Hf8Ta7IrC16
_chemical_formula_sum   'Hf8 Ta7 Ir1 C16'
_cell_volume   444.79113698
_cell_formula_units_Z   1
loop_
 _symmetry_equiv_pos_site_id
 _symmetry_equiv_pos_as_xyz
  1  'x, y, z'
loop_
 _atom_site_type_symbol
 _atom_site_label
 _atom_site_symmetry_multiplicity
 _atom_site_fract_x
 _atom_site_fract_y
 _atom_site_fract_z
 _atom_site_occupancy
  C  C0  1  0.25187116  0.25314853  0.40609479  1
  C  C1  1  0.25041541  0.99619069  0.92675253  1
  C  C2  1  0.00000001  0.24635326  0.07874316  1
  C  C3  1  -0.00000002  0.99522965  0.57320726  1
  C  C4  1  0.24987400  0.74914650  0.41090426  1
  C  C5  1  0.24895404  0.49951993  0.93302682  1
  C  C6  1  0.00000002  0.75145325  0.09081838  1
  C  C7  1  0.00000006  0.51046272  0.58085813  1
  C  C8  1  0.74812882  0.25314847  0.40609473  1
  C  C9  1  0.74958454  0.99619071  0.92675250  1
  C  C10  1  0.50000000  0.24832115  0.08727922  1
  C  C11  1  0.49999998  0.00442435  0.56674855  1
  C  C12  1  0.75012598  0.74914654  0.41090434  1
  C  C13  1  0.75104597  0.49951993  0.93302686  1
  C  C14  1  0.50000000  0.74952090  0.09605391  1
  C  C15  1  0.49999997  0.49909647  0.56611669  1
  Hf  Hf16  1  -0.00000002  0.99581191  0.91297764  1
  Hf  Hf17  1  0.25166116  0.00141821  0.57601379  1
  Hf  Hf18  1  0.24614020  0.50271781  0.58748933  1
  Hf  Hf19  1  0.50000001  0.99637971  0.92101785  1
  Hf  Hf20  1  0.74833882  0.00141820  0.57601387  1
  Hf  Hf21  1  0.49999998  0.49942779  0.92151988  1
  Hf  Hf22  1  0.75385980  0.50271778  0.58748929  1
  Hf  Hf23  1  -0.00000002  0.25393627  0.41644178  1
  Ta  Ta24  1  0.24329483  0.25030921  0.08130156  1
  Ta  Ta25  1  -0.00000003  0.74886289  0.41756525  1
  Ta  Ta26  1  0.24259807  0.74797816  0.08636328  1
  Ta  Ta27  1  0.50000002  0.25251973  0.41071339  1
  Ta  Ta28  1  0.75670516  0.25030917  0.08130158  1
  Ta  Ta29  1  0.50000002  0.74889900  0.41640869  1
  Ta  Ta30  1  0.75740190  0.74797811  0.08636332  1
  Ir  Ir31  1  0.00000008  0.49844298  0.92763738  1
