# generated using pymatgen
data_Hf8Ta7AuC16
_symmetry_space_group_name_H-M   'P 1'
_cell_length_a   7.62027413
_cell_length_b   9.02326233
_cell_length_c   6.57072060
_cell_angle_alpha   90.31586144
_cell_angle_beta   90.00135916
_cell_angle_gamma   90.00001105
_symmetry_Int_Tables_number   1
_chemical_formula_structural   Hf8Ta7AuC16
_chemical_formula_sum   'Hf8 Ta7 Au1 C16'
_cell_volume   451.79412514
_cell_formula_units_Z   1
loop_
 _symmetry_equiv_pos_site_id
 _symmetry_equiv_pos_as_xyz
  1  'x, y, z'
loop_
 _atom_site_type_symbol
 _atom_site_label
 _atom_site_symmetry_multiplicity
 _atom_site_fract_x
 _atom_site_fract_y
 _atom_site_fract_z
 _atom_site_occupancy
  C  C0  1  0.25258014  0.25053334  0.40866538  1
  C  C1  1  0.25448258  0.99856393  0.07915225  1
  C  C2  1  0.00001791  0.24269055  0.94399221  1
  C  C3  1  0.99999329  0.00038539  0.58457841  1
  C  C4  1  0.24771963  0.75022742  0.41225481  1
  C  C5  1  0.27390635  0.50071973  0.08584011  1
  C  C6  1  0.00000939  0.75464326  0.91367937  1
  C  C7  1  0.99999167  0.50767765  0.57360773  1
  C  C8  1  0.74742588  0.25053243  0.40858725  1
  C  C9  1  0.74551301  0.99856587  0.07910668  1
  C  C10  1  0.49996498  0.24880936  0.89968392  1
  C  C11  1  0.50001638  0.99987539  0.57305766  1
  C  C12  1  0.75228368  0.75022890  0.41220629  1
  C  C13  1  0.72608095  0.50071790  0.08577126  1
  C  C14  1  0.49998181  0.75010258  0.90148072  1
  C  C15  1  0.50001305  0.50073461  0.57125648  1
  Hf  Hf16  1  0.00000061  0.99926306  0.91818538  1
  Hf  Hf17  1  0.24755019  0.99920789  0.41189117  1
  Hf  Hf18  1  0.25045270  0.50195184  0.41617042  1
  Hf  Hf19  1  0.49998681  0.99975348  0.90845742  1
  Hf  Hf20  1  0.75245073  0.99920841  0.41185983  1
  Hf  Hf21  1  0.50000076  0.49944014  0.89915214  1
  Hf  Hf22  1  0.74954686  0.50195195  0.41613967  1
  Hf  Hf23  1  0.99999397  0.25896384  0.59335744  1
  Ta  Ta24  1  0.25256302  0.25321530  0.08211697  1
  Ta  Ta25  1  0.00000006  0.74490466  0.58390074  1
  Ta  Ta26  1  0.24900786  0.74466476  0.07770033  1
  Ta  Ta27  1  0.50001138  0.24820811  0.57217813  1
  Ta  Ta28  1  0.74744147  0.25321978  0.08207602  1
  Ta  Ta29  1  0.50000806  0.75189773  0.57357466  1
  Ta  Ta30  1  0.75099295  0.74466197  0.07767512  1
  Au  Au31  1  0.00001191  0.49447875  0.04264408  1
