# generated using pymatgen
data_Hf8Ta7CdC16
_symmetry_space_group_name_H-M   'P 1'
_cell_length_a   9.15842974
_cell_length_b   9.14614925
_cell_length_c   4.57791817
_cell_angle_alpha   89.99972140
_cell_angle_beta   90.00008598
_cell_angle_gamma   89.99999593
_symmetry_Int_Tables_number   1
_chemical_formula_structural   Hf8Ta7CdC16
_chemical_formula_sum   'Hf8 Ta7 Cd1 C16'
_cell_volume   383.46640989
_cell_formula_units_Z   1
loop_
 _symmetry_equiv_pos_site_id
 _symmetry_equiv_pos_as_xyz
  1  'x, y, z'
loop_
 _atom_site_type_symbol
 _atom_site_label
 _atom_site_symmetry_multiplicity
 _atom_site_fract_x
 _atom_site_fract_y
 _atom_site_fract_z
 _atom_site_occupancy
  C  C0  1  0.25234739  0.25133078  0.50001502  1
  C  C1  1  0.25128339  0.99987912  0.00004219  1
  C  C2  1  0.99999999  0.23804695  0.99997704  1
  C  C3  1  0.00000003  0.99580583  0.50001886  1
  C  C4  1  0.24972859  0.74985706  0.50002221  1
  C  C5  1  0.25992912  0.50197684  0.99998283  1
  C  C6  1  0.99999994  0.75787242  0.99998482  1
  C  C7  1  0.00000011  0.50758406  0.49980530  1
  C  C8  1  0.74765267  0.25133097  0.50001514  1
  C  C9  1  0.74871649  0.99987927  0.00004312  1
  C  C10  1  0.50000000  0.24953885  0.00003220  1
  C  C11  1  0.49999990  -0.00005135  0.50005016  1
  C  C12  1  0.75027137  0.74985719  0.50002361  1
  C  C13  1  0.74007097  0.50197720  0.99998370  1
  C  C14  1  0.49999995  0.75034291  0.00003075  1
  C  C15  1  0.50000007  0.50021848  0.50000439  1
  Hf  Hf16  1  0.99999998  0.99922034  0.00003508  1
  Hf  Hf17  1  0.25034476  0.99940967  0.50003487  1
  Hf  Hf18  1  0.24751208  0.50144185  0.49997428  1
  Hf  Hf19  1  0.49999991  0.99949191  0.00004677  1
  Hf  Hf20  1  0.74965517  0.99940976  0.50003562  1
  Hf  Hf21  1  0.50000007  0.50013343  0.00000574  1
  Hf  Hf22  1  0.75248805  0.50144212  0.49997530  1
  Hf  Hf23  1  0.00000001  0.25219634  0.49997959  1
  Ta  Ta24  1  0.25167275  0.24853201  0.00000251  1
  Ta  Ta25  1  0.00000014  0.74895903  0.50003265  1
  Ta  Ta26  1  0.25130834  0.75010874  0.00000808  1
  Ta  Ta27  1  0.50000005  0.25090931  0.50002389  1
  Ta  Ta28  1  0.74832729  0.24853203  0.00000291  1
  Ta  Ta29  1  0.49999981  0.74949930  0.50002336  1
  Ta  Ta30  1  0.74869159  0.75010887  0.00000919  1
  Cd  Cd31  1  0.00000001  0.49515867  0.99977885  1
