# generated using pymatgen
data_Hf8Ta7CoC16
_symmetry_space_group_name_H-M   'P 1'
_cell_length_a   7.51443189
_cell_length_b   8.96934864
_cell_length_c   6.54656383
_cell_angle_alpha   90.05053136
_cell_angle_beta   89.96314359
_cell_angle_gamma   90.00962217
_symmetry_Int_Tables_number   1
_chemical_formula_structural   Hf8Ta7CoC16
_chemical_formula_sum   'Hf8 Ta7 Co1 C16'
_cell_volume   441.23524882
_cell_formula_units_Z   1
loop_
 _symmetry_equiv_pos_site_id
 _symmetry_equiv_pos_as_xyz
  1  'x, y, z'
loop_
 _atom_site_type_symbol
 _atom_site_label
 _atom_site_symmetry_multiplicity
 _atom_site_fract_x
 _atom_site_fract_y
 _atom_site_fract_z
 _atom_site_occupancy
  C  C0  1  0.25193273  0.25073969  0.41494838  1
  C  C1  1  0.25247572  0.99950480  0.08491085  1
  C  C2  1  0.00205990  0.25774075  0.94094835  1
  C  C3  1  0.99928644  0.99716745  0.59014442  1
  C  C4  1  0.24458574  0.74900634  0.41865239  1
  C  C5  1  0.24587882  0.50032344  0.08028072  1
  C  C6  1  0.00078705  0.74148471  0.92496220  1
  C  C7  1  0.99887260  0.50459858  0.59847075  1
  C  C8  1  0.74911783  0.25074952  0.40672465  1
  C  C9  1  0.74682416  0.99960657  0.08091015  1
  C  C10  1  0.49681421  0.25089389  0.90494139  1
  C  C11  1  0.50125423  0.99955909  0.57730076  1
  C  C12  1  0.75615350  0.74906392  0.41433714  1
  C  C13  1  0.75344492  0.50030419  0.07559164  1
  C  C14  1  0.49845370  0.74861910  0.90499193  1
  C  C15  1  0.50122323  0.50030150  0.57559710  1
  Hf  Hf16  1  0.00031517  0.99841383  0.92245770  1
  Hf  Hf17  1  0.24761521  0.99893925  0.41582397  1
  Hf  Hf18  1  0.24735989  0.50098457  0.41752204  1
  Hf  Hf19  1  0.49917784  -0.00001204  0.91233212  1
  Hf  Hf20  1  0.75300716  0.99899688  0.41281910  1
  Hf  Hf21  1  0.49904759  0.49961624  0.90754310  1
  Hf  Hf22  1  0.75301289  0.50102120  0.41416567  1
  Hf  Hf23  1  0.99895537  0.25667279  0.59784925  1
  Ta  Ta24  1  0.25024471  0.25604596  0.08576003  1
  Ta  Ta25  1  0.99968009  0.74365948  0.59280917  1
  Ta  Ta26  1  0.24923020  0.74261904  0.08376312  1
  Ta  Ta27  1  0.50101329  0.24951563  0.57616170  1
  Ta  Ta28  1  0.75000721  0.25640535  0.08164002  1
  Ta  Ta29  1  0.50055040  0.75016978  0.57687124  1
  Ta  Ta30  1  0.75048456  0.74257013  0.08153363  1
  Co  Co31  1  0.00113365  0.50471833  0.92723531  1
