# generated using pymatgen
data_Hf8Ta7CrC16
_symmetry_space_group_name_H-M   'P 1'
_cell_length_a   9.07630459
_cell_length_b   9.05803024
_cell_length_c   4.54954300
_cell_angle_alpha   90.00029620
_cell_angle_beta   90.00000076
_cell_angle_gamma   90.00000380
_symmetry_Int_Tables_number   1
_chemical_formula_structural   Hf8Ta7CrC16
_chemical_formula_sum   'Hf8 Ta7 Cr1 C16'
_cell_volume   374.03358703
_cell_formula_units_Z   1
loop_
 _symmetry_equiv_pos_site_id
 _symmetry_equiv_pos_as_xyz
  1  'x, y, z'
loop_
 _atom_site_type_symbol
 _atom_site_label
 _atom_site_symmetry_multiplicity
 _atom_site_fract_x
 _atom_site_fract_y
 _atom_site_fract_z
 _atom_site_occupancy
  C  C0  1  0.25206601  0.25190161  0.49999006  1
  C  C1  1  0.25051837  0.99902030  0.00000670  1
  C  C2  1  -0.00000000  0.25571507  0.00000546  1
  C  C3  1  -0.00000001  0.99611163  0.50001885  1
  C  C4  1  0.24918321  0.74870281  0.50000835  1
  C  C5  1  0.24572387  0.50020882  0.99999374  1
  C  C6  1  -0.00000002  0.74441214  0.00002309  1
  C  C7  1  -0.00000001  0.50486575  0.50001370  1
  C  C8  1  0.74793398  0.25190164  0.49999006  1
  C  C9  1  0.74948163  0.99902031  0.00000674  1
  C  C10  1  0.50000001  0.24985018  0.99997683  1
  C  C11  1  0.50000001  0.99989509  0.49999359  1
  C  C12  1  0.75081678  0.74870282  0.50000838  1
  C  C13  1  0.75427612  0.50020882  0.99999375  1
  C  C14  1  0.50000003  0.74977595  0.99999413  1
  C  C15  1  0.50000001  0.50014777  0.49997749  1
  Hf  Hf16  1  0.99999999  0.00115836  0.00001693  1
  Hf  Hf17  1  0.24979926  0.99936546  0.50000686  1
  Hf  Hf18  1  0.24650473  0.50050618  0.49999004  1
  Hf  Hf19  1  0.50000000  0.99948730  0.99999502  1
  Hf  Hf20  1  0.75020075  0.99936546  0.50000681  1
  Hf  Hf21  1  0.49999998  0.50026716  0.99998046  1
  Hf  Hf22  1  0.75349531  0.50050619  0.49999003  1
  Hf  Hf23  1  0.00000000  0.25518703  0.50000397  1
  Ta  Ta24  1  0.24663617  0.25384480  0.99999388  1
  Ta  Ta25  1  0.99999997  0.74623193  0.50002461  1
  Ta  Ta26  1  0.24421828  0.74635482  0.00000809  1
  Ta  Ta27  1  0.50000000  0.24999851  0.49997891  1
  Ta  Ta28  1  0.75336382  0.25384483  0.99999390  1
  Ta  Ta29  1  0.50000005  0.74934066  0.49999225  1
  Ta  Ta30  1  0.75578166  0.74635481  0.00000807  1
  Cr  Cr31  1  0.00000005  0.49774577  0.00000928  1
