# generated using pymatgen
data_Hf8Ta7FeC16
_symmetry_space_group_name_H-M   'P 1'
_cell_length_a   7.50771080
_cell_length_b   8.98130711
_cell_length_c   6.53273718
_cell_angle_alpha   89.95821554
_cell_angle_beta   90.00124761
_cell_angle_gamma   90.00042832
_symmetry_Int_Tables_number   1
_chemical_formula_structural   Hf8Ta7FeC16
_chemical_formula_sum   'Hf8 Ta7 Fe1 C16'
_cell_volume   440.49618635
_cell_formula_units_Z   1
loop_
 _symmetry_equiv_pos_site_id
 _symmetry_equiv_pos_as_xyz
  1  'x, y, z'
loop_
 _atom_site_type_symbol
 _atom_site_label
 _atom_site_symmetry_multiplicity
 _atom_site_fract_x
 _atom_site_fract_y
 _atom_site_fract_z
 _atom_site_occupancy
  C  C0  1  0.25205653  0.25065923  0.58893377  1
  C  C1  1  0.25255882  0.99981781  0.91663622  1
  C  C2  1  0.00008559  0.25583427  0.06128032  1
  C  C3  1  0.99997178  0.99756846  0.41117622  1
  C  C4  1  0.24531701  0.74880818  0.58367421  1
  C  C5  1  0.24123955  0.50013118  0.92491048  1
  C  C6  1  0.00002768  0.74397206  0.07786265  1
  C  C7  1  0.99995356  0.50439392  0.39620202  1
  C  C8  1  0.74798825  0.25065996  0.58928733  1
  C  C9  1  0.74741563  0.99982024  0.91679910  1
  C  C10  1  0.49986753  0.25081263  0.09267661  1
  C  C11  1  0.50005112  0.99935097  0.42150220  1
  C  C12  1  0.75471008  0.74880994  0.58383343  1
  C  C13  1  0.75873134  0.50012964  0.92510365  1
  C  C14  1  0.49994783  0.74829265  0.09165679  1
  C  C15  1  0.50005277  0.50018435  0.42259548  1
  Hf  Hf16  1  0.00001560  0.99679041  0.07819930  1
  Hf  Hf17  1  0.24774626  0.99872823  0.58537034  1
  Hf  Hf18  1  0.24686861  0.50076588  0.58451049  1
  Hf  Hf19  1  0.49996662  0.00000823  0.08669868  1
  Hf  Hf20  1  0.75227713  0.99873179  0.58549525  1
  Hf  Hf21  1  0.49996367  0.49934067  0.08993313  1
  Hf  Hf22  1  0.75315466  0.50076606  0.58464443  1
  Hf  Hf23  1  0.99995732  0.25545149  0.40243657  1
  Ta  Ta24  1  0.24906959  0.25517890  0.91697367  1
  Ta  Ta25  1  0.99998822  0.74384168  0.40777316  1
  Ta  Ta26  1  0.24849987  0.74270934  0.91802428  1
  Ta  Ta27  1  0.50004406  0.24957694  0.42348146  1
  Ta  Ta28  1  0.75093828  0.25519046  0.91715261  1
  Ta  Ta29  1  0.50002252  0.74982645  0.42213434  1
  Ta  Ta30  1  0.75148719  0.74271288  0.91811504  1
  Fe  Fe31  1  0.00002535  0.51113512  0.07492671  1
