# generated using pymatgen
data_Zr3Ti4Nb3Cr3Si3(B3N)4
_symmetry_space_group_name_H-M   'P 1'
_cell_length_a   8.61961498
_cell_length_b   9.21616594
_cell_length_c   9.22210744
_cell_angle_alpha   82.75127370
_cell_angle_beta   87.82866381
_cell_angle_gamma   85.12426598
_symmetry_Int_Tables_number   1
_chemical_formula_structural   Zr3Ti4Nb3Cr3Si3(B3N)4
_chemical_formula_sum   'Zr6 Ti8 Nb6 Cr6 Si6 B24 N8'
_cell_volume   723.84393436
_cell_formula_units_Z   2
loop_
 _symmetry_equiv_pos_site_id
 _symmetry_equiv_pos_as_xyz
  1  'x, y, z'
loop_
 _atom_site_type_symbol
 _atom_site_label
 _atom_site_symmetry_multiplicity
 _atom_site_fract_x
 _atom_site_fract_y
 _atom_site_fract_z
 _atom_site_occupancy
  Ti  Ti0  1  0.04531057  0.98169202  0.96608414  1
  Ti  Ti1  1  0.62039494  0.97816516  0.36633082  1
  Ti  Ti2  1  0.35640744  0.56235027  0.03657343  1
  Ti  Ti3  1  0.39913601  0.49536945  0.41119625  1
  Ti  Ti4  1  0.06314683  0.01739911  0.29265303  1
  Ti  Ti5  1  0.81470213  0.19651856  0.75048319  1
  Ti  Ti6  1  0.82958724  0.82588987  0.20559738  1
  Ti  Ti7  1  0.81316674  0.68473084  0.73666852  1
  B  B8  1  0.53790987  0.36206533  0.24666219  1
  B  B9  1  0.43660792  0.24187002  0.82149096  1
  B  B10  1  0.62369420  0.71702279  0.37833354  1
  B  B11  1  0.41376474  0.71866295  0.84251253  1
  B  B12  1  0.37516621  0.04628587  0.28150908  1
  B  B13  1  0.23270653  0.98015758  0.81579465  1
  B  B14  1  0.20281339  0.56548337  0.25036829  1
  B  B15  1  0.20773451  0.49059346  0.59405806  1
  B  B16  1  0.71610117  0.10109591  0.15583124  1
  B  B17  1  0.89540320  0.91671255  0.77747172  1
  B  B18  1  0.88904076  0.57517940  0.26793479  1
  B  B19  1  0.59527722  0.57793755  0.86862731  1
  B  B20  1  0.31531169  0.32931977  0.95145024  1
  B  B21  1  0.24635380  0.31856941  0.50630306  1
  B  B22  1  0.29374519  0.82563517  0.96543346  1
  B  B23  1  0.29149223  0.65258867  0.55338753  1
  B  B24  1  0.84251791  0.17812864  0.00601582  1
  B  B25  1  0.76579862  0.17309881  0.50954278  1
  B  B26  1  0.88651246  0.78555411  0.94390225  1
  B  B27  1  0.77024631  0.78063835  0.48621400  1
  B  B28  1  0.05675464  0.00980691  0.69405093  1
  B  B29  1  0.04580543  0.49512844  0.17158478  1
  B  B30  1  0.01775973  0.49660184  0.67327976  1
  B  B31  1  0.52335981  0.16559497  0.20576874  1
  Cr  Cr32  1  0.44840056  0.96556848  0.74732171  1
  Cr  Cr33  1  0.64266719  0.56084998  0.22049779  1
  Cr  Cr34  1  0.43367028  0.48455173  0.74034186  1
  Cr  Cr35  1  0.07440905  0.23968385  0.01630642  1
  Cr  Cr36  1  0.01167332  0.19963878  0.51474941  1
  Cr  Cr37  1  0.07784517  0.72293788  0.10754296  1
  Nb  Nb38  1  0.04125767  0.68741845  0.45323615  1
  Nb  Nb39  1  0.59332269  0.31976890  0.00061658  1
  Nb  Nb40  1  0.51359736  0.22014385  0.57206115  1
  Nb  Nb41  1  0.57637524  0.78371574  0.00068040  1
  Nb  Nb42  1  0.50826211  0.74839577  0.59885109  1
  Nb  Nb43  1  0.35723097  0.06766743  0.02365710  1
  Si  Si44  1  0.31524614  0.00841454  0.50120057  1
  Si  Si45  1  0.12273132  0.48321085  0.89608882  1
  Si  Si46  1  0.06142932  0.43142056  0.39705912  1
  Si  Si47  1  0.75835126  0.99249593  0.95822350  1
  Si  Si48  1  0.72513373  0.95833557  0.62226805  1
  Si  Si49  1  0.79912729  0.56371559  0.00943070  1
  Zr  Zr50  1  0.76113162  0.47907518  0.51549585  1
  Zr  Zr51  1  0.27319228  0.28896563  0.23900077  1
  Zr  Zr52  1  0.17594088  0.24398461  0.74852519  1
  Zr  Zr53  1  0.35126214  0.78622679  0.26569507  1
  Zr  Zr54  1  0.15300274  0.74539659  0.76066574  1
  Zr  Zr55  1  0.85525722  0.29471933  0.23953554  1
  N  N56  1  0.58629327  0.29282400  0.76965905  1
  N  N57  1  0.60136918  0.78664587  0.22645462  1
  N  N58  1  0.63662319  0.56796715  0.70728317  1
  N  N59  1  0.10480373  0.99359042  0.52997993  1
  N  N60  1  0.97820773  0.44016880  0.04308854  1
  N  N61  1  0.94160448  0.35286456  0.66609362  1
  N  N62  1  0.56719033  0.00297445  0.90596607  1
  N  N63  1  0.82966112  0.04081556  0.26930909  1
