# generated using pymatgen
data_Zr2Ti3Nb2Cr3(SiN12)2
_symmetry_space_group_name_H-M   'P 1'
_cell_length_a   13.07839750
_cell_length_b   6.10346209
_cell_length_c   5.72117038
_cell_angle_alpha   99.73491487
_cell_angle_beta   83.97254422
_cell_angle_gamma   119.60197624
_symmetry_Int_Tables_number   1
_chemical_formula_structural   Zr2Ti3Nb2Cr3(SiN12)2
_chemical_formula_sum   'Zr2 Ti3 Nb2 Cr3 Si2 N24'
_cell_volume   391.23591161
_cell_formula_units_Z   1
loop_
 _symmetry_equiv_pos_site_id
 _symmetry_equiv_pos_as_xyz
  1  'x, y, z'
loop_
 _atom_site_type_symbol
 _atom_site_label
 _atom_site_symmetry_multiplicity
 _atom_site_fract_x
 _atom_site_fract_y
 _atom_site_fract_z
 _atom_site_occupancy
  Ti  Ti0  1  0.01716259  0.85017354  0.06685722  1
  Ti  Ti1  1  0.28659723  0.12747117  0.45042315  1
  Ti  Ti2  1  0.18862001  0.44416603  0.16207259  1
  N  N3  1  0.35370336  0.62106374  0.51280816  1
  N  N4  1  0.76001294  0.03989825  0.08799697  1
  N  N5  1  0.67639912  0.97191294  0.60235732  1
  N  N6  1  0.71730892  0.52561513  0.94650482  1
  N  N7  1  0.72335437  0.55364923  0.45772989  1
  N  N8  1  0.17374704  0.11935939  0.23710934  1
  N  N9  1  0.24864400  0.24872964  0.77874910  1
  N  N10  1  0.25613306  0.80607643  0.26946287  1
  N  N11  1  0.33932257  0.74447717  0.68519976  1
  N  N12  1  0.57616425  0.09449945  0.11575609  1
  N  N13  1  0.52980022  0.16659073  0.64941927  1
  N  N14  1  0.50482128  0.51107224  0.21239416  1
  N  N15  1  0.49007200  0.49924184  0.70129769  1
  N  N16  1  0.00329186  0.19017566  0.18144592  1
  N  N17  1  0.92472920  0.23360009  0.75488501  1
  N  N18  1  0.91052523  0.53443483  0.21250728  1
  N  N19  1  0.93859083  0.83985206  0.76255093  1
  N  N20  1  0.05832391  0.33730547  0.40119678  1
  N  N21  1  0.16340823  0.30694103  0.82258669  1
  N  N22  1  0.10004438  0.98627086  0.41731696  1
  N  N23  1  0.11010297  0.74102913  0.85928967  1
  N  N24  1  0.40826009  0.32060315  0.19194269  1
  N  N25  1  0.45144825  0.25558040  0.68225897  1
  N  N26  1  0.49077791  0.92042590  0.03168137  1
  Cr  Cr27  1  0.50780236  0.79056551  0.67347665  1
  Cr  Cr28  1  0.72299716  0.33578326  0.16871530  1
  Cr  Cr29  1  0.67946822  0.29976509  0.65862797  1
  Nb  Nb30  1  0.66655034  0.73422638  0.28025415  1
  Nb  Nb31  1  0.77476678  0.82138366  0.76181434  1
  Si  Si32  1  0.03318448  0.14745900  0.64175283  1
  Si  Si33  1  0.90893622  0.26882314  0.05964296  1
  Zr  Zr34  1  0.02004991  0.63078999  0.55053869  1
  Zr  Zr35  1  0.28487903  0.98098891  0.95137644  1
