# generated using pymatgen
data_ZrTi2NbCrSi(BN3)3
_symmetry_space_group_name_H-M   'P 1'
_cell_length_a   10.10728779
_cell_length_b   6.35395902
_cell_length_c   7.07265785
_cell_angle_alpha   88.37350717
_cell_angle_beta   82.09797044
_cell_angle_gamma   123.69636549
_symmetry_Int_Tables_number   1
_chemical_formula_structural   ZrTi2NbCrSi(BN3)3
_chemical_formula_sum   'Zr2 Ti4 Nb2 Cr2 Si2 B6 N18'
_cell_volume   371.28312720
_cell_formula_units_Z   2
loop_
 _symmetry_equiv_pos_site_id
 _symmetry_equiv_pos_as_xyz
  1  'x, y, z'
loop_
 _atom_site_type_symbol
 _atom_site_label
 _atom_site_symmetry_multiplicity
 _atom_site_fract_x
 _atom_site_fract_y
 _atom_site_fract_z
 _atom_site_occupancy
  Ti  Ti0  1  0.97617611  0.79810997  0.97324653  1
  Ti  Ti1  1  0.29574655  0.98390820  0.44503101  1
  Ti  Ti2  1  0.30589891  0.43148620  0.05372576  1
  Ti  Ti3  1  0.22247971  0.45660504  0.47163428  1
  B  B4  1  0.79116638  0.21872337  0.07653890  1
  B  B5  1  0.70460726  0.17662890  0.46822053  1
  B  B6  1  0.67552805  0.94038061  0.97177775  1
  B  B7  1  0.55931653  0.23688132  0.42345115  1
  B  B8  1  0.23889798  0.20875028  0.77010599  1
  B  B9  1  0.19676550  0.71353729  0.14941030  1
  Cr  Cr10  1  0.21356351  0.68145179  0.78999193  1
  Cr  Cr11  1  0.49312343  0.93587544  0.13285076  1
  Nb  Nb12  1  0.52396940  0.11926334  0.72889450  1
  Nb  Nb13  1  0.62217103  0.61167924  0.27219828  1
  Si  Si14  1  0.54138641  0.63564269  0.64990291  1
  Si  Si15  1  0.94856268  0.15198498  0.29776483  1
  Zr  Zr16  1  0.88985078  0.25425850  0.73286240  1
  Zr  Zr17  1  0.96059868  0.76595406  0.51301430  1
  N  N18  1  0.78965257  0.69053548  0.83195319  1
  N  N19  1  0.12563468  0.44221671  0.20656492  1
  N  N20  1  0.14574553  0.31865838  0.81666619  1
  N  N21  1  0.13202399  0.85629275  0.22878563  1
  N  N22  1  0.15546590  0.94557692  0.72633695  1
  N  N23  1  0.54239386  0.24310343  0.22628486  1
  N  N24  1  0.40852901  0.34132976  0.80283722  1
  N  N25  1  0.43237432  0.61770678  0.26089120  1
  N  N26  1  0.41585831  0.75390616  0.64663280  1
  N  N27  1  0.78640511  0.18105118  0.29171139  1
  N  N28  1  0.75066635  0.49125550  0.72063235  1
  N  N29  1  0.87067432  0.85162341  0.22430748  1
  N  N30  1  0.69399923  0.79825251  0.81529518  1
  N  N31  1  0.98934579  0.11983180  0.51952576  1
  N  N32  1  0.92231362  0.47121947  0.98043226  1
  N  N33  1  0.10552048  0.60473292  0.55798259  1
  N  N34  1  0.33959589  0.82676077  0.98447014  1
  N  N35  1  0.23399244  0.12482525  0.23806777  1
