# generated using pymatgen
data_Zr2Ti3Nb2Cr3(SiB12)2
_symmetry_space_group_name_H-M   'P 1'
_cell_length_a   10.00555274
_cell_length_b   6.12505402
_cell_length_c   6.53662065
_cell_angle_alpha   89.29283414
_cell_angle_beta   89.01436033
_cell_angle_gamma   122.68473281
_symmetry_Int_Tables_number   1
_chemical_formula_structural   Zr2Ti3Nb2Cr3(SiB12)2
_chemical_formula_sum   'Zr2 Ti3 Nb2 Cr3 Si2 B24'
_cell_volume   337.00043294
_cell_formula_units_Z   1
loop_
 _symmetry_equiv_pos_site_id
 _symmetry_equiv_pos_as_xyz
  1  'x, y, z'
loop_
 _atom_site_type_symbol
 _atom_site_label
 _atom_site_symmetry_multiplicity
 _atom_site_fract_x
 _atom_site_fract_y
 _atom_site_fract_z
 _atom_site_occupancy
  Ti  Ti0  1  0.01357210  0.99179022  0.99672279  1
  Ti  Ti1  1  0.30831696  0.03905283  0.49760525  1
  Ti  Ti2  1  0.32661258  0.53585261  0.00481590  1
  B  B3  1  0.30486854  0.66873086  0.47565775  1
  B  B4  1  0.59135370  0.92077167  0.95915969  1
  B  B5  1  0.75917784  0.04875399  0.45670964  1
  B  B6  1  0.80564204  0.54939126  0.99807940  1
  B  B7  1  0.72759597  0.43463725  0.43706718  1
  B  B8  1  0.20507536  0.17470375  0.23454796  1
  B  B9  1  0.23315970  0.19307386  0.76549865  1
  B  B10  1  0.22398481  0.69863220  0.24824530  1
  B  B11  1  0.25700608  0.70931186  0.72708105  1
  B  B12  1  0.53301407  0.23903148  0.33447156  1
  B  B13  1  0.56298473  0.28142826  0.61467724  1
  B  B14  1  0.42087033  0.53670690  0.44997830  1
  B  B15  1  0.55010405  0.63082628  0.87836180  1
  B  B16  1  0.89155035  0.14661110  0.22454559  1
  B  B17  1  0.79488261  0.03833808  0.98001728  1
  B  B18  1  0.88400284  0.63362899  0.24377176  1
  B  B19  1  0.94877312  0.64390661  0.81270383  1
  B  B20  1  0.10326359  0.33791945  0.22913956  1
  B  B21  1  0.14753696  0.36863513  0.75163676  1
  B  B22  1  0.10093407  0.83952718  0.25344165  1
  B  B23  1  0.14790543  0.85844746  0.77996362  1
  B  B24  1  0.40816823  0.35572518  0.25833400  1
  B  B25  1  0.44477469  0.42427429  0.69170186  1
  B  B26  1  0.44378368  0.90065851  0.28640626  1
  Cr  Cr27  1  0.51338311  0.84346840  0.63886969  1
  Cr  Cr28  1  0.70594356  0.21141287  0.17985219  1
  Cr  Cr29  1  0.74162385  0.25115291  0.75961890  1
  Nb  Nb30  1  0.66716424  0.69835656  0.20728194  1
  Nb  Nb31  1  0.76261598  0.73603438  0.68724256  1
  Si  Si32  1  0.05624029  0.06805501  0.53604270  1
  Si  Si33  1  0.99203556  0.38470103  0.93471378  1
  Zr  Zr34  1  0.00323800  0.48880031  0.49914244  1
  Zr  Zr35  1  0.41884135  0.11765166  0.96689414  1
