# generated using pymatgen
data_ZrTi2NbCrSi(B3N)3
_symmetry_space_group_name_H-M   'P 1'
_cell_length_a   9.26355671
_cell_length_b   7.10158451
_cell_length_c   5.93885030
_cell_angle_alpha   93.61794077
_cell_angle_beta   93.54583286
_cell_angle_gamma   113.94896712
_symmetry_Int_Tables_number   1
_chemical_formula_structural   ZrTi2NbCrSi(B3N)3
_chemical_formula_sum   'Zr2 Ti4 Nb2 Cr2 Si2 B18 N6'
_cell_volume   354.70328012
_cell_formula_units_Z   2
loop_
 _symmetry_equiv_pos_site_id
 _symmetry_equiv_pos_as_xyz
  1  'x, y, z'
loop_
 _atom_site_type_symbol
 _atom_site_label
 _atom_site_symmetry_multiplicity
 _atom_site_fract_x
 _atom_site_fract_y
 _atom_site_fract_z
 _atom_site_occupancy
  Ti  Ti0  1  0.98587969  0.07536348  0.89243831  1
  Ti  Ti1  1  0.32039643  0.87034055  0.68393406  1
  Ti  Ti2  1  0.21861667  0.47491873  0.94567668  1
  Ti  Ti3  1  0.30527279  0.47229644  0.44765855  1
  B  B4  1  0.75385224  0.07038522  0.98254913  1
  B  B5  1  0.70411843  0.11465968  0.40265328  1
  B  B6  1  0.54227575  0.44657540  0.28285430  1
  B  B7  1  0.55932039  0.38609646  0.54542792  1
  B  B8  1  0.20810068  0.17571210  0.67118714  1
  B  B9  1  0.04416496  0.52533793  0.34745036  1
  B  B10  1  0.11525177  0.54665341  0.64342899  1
  B  B11  1  0.54784114  0.12265668  0.55667100  1
  B  B12  1  0.58644561  0.02443791  0.81527886  1
  B  B13  1  0.48029389  0.59078059  0.12607719  1
  B  B14  1  0.72960381  0.87216835  0.78394558  1
  B  B15  1  0.91829290  0.31017958  0.09399673  1
  B  B16  1  0.88013335  0.09468204  0.49815906  1
  B  B17  1  0.12041345  0.81489759  0.28232553  1
  B  B18  1  0.95897114  0.78321657  0.60559505  1
  B  B19  1  0.01676321  0.22128041  0.29474071  1
  B  B20  1  0.06385428  0.29070894  0.61166579  1
  B  B21  1  0.16674947  0.02050319  0.13242879  1
  Cr  Cr22  1  0.09595623  0.75592948  0.91671586  1
  Cr  Cr23  1  0.35060299  0.15883357  0.37147235  1
  Nb  Nb24  1  0.47166817  0.30061166  0.89210472  1
  Nb  Nb25  1  0.47454354  0.91162068  0.17552298  1
  Si  Si26  1  0.50507998  0.67915613  0.80006745  1
  Si  Si27  1  0.70590503  0.31805540  0.17323440  1
  Zr  Zr28  1  0.82756960  0.37075140  0.73070969  1
  Zr  Zr29  1  0.76670606  0.77691110  0.21263046  1
  N  N30  1  0.83514606  0.88152573  0.59943869  1
  N  N31  1  0.11627744  0.95017367  0.69248243  1
  N  N32  1  0.18275738  0.65902361  0.20352483  1
  N  N33  1  0.96292658  0.68166886  0.37166196  1
  N  N34  1  0.31534030  0.02555786  0.02867945  1
  N  N35  1  0.16290889  0.22633003  0.18561174  1
