# generated using pymatgen
data_Zr3Ti4Nb3Cr3Si3(BN)8
_symmetry_space_group_name_H-M   'P 1'
_cell_length_a   9.16822610
_cell_length_b   9.57750329
_cell_length_c   8.78394927
_cell_angle_alpha   84.03637968
_cell_angle_beta   97.31668879
_cell_angle_gamma   83.03647473
_symmetry_Int_Tables_number   1
_chemical_formula_structural   Zr3Ti4Nb3Cr3Si3(BN)8
_chemical_formula_sum   'Zr6 Ti8 Nb6 Cr6 Si6 B16 N16'
_cell_volume   753.78455855
_cell_formula_units_Z   2
loop_
 _symmetry_equiv_pos_site_id
 _symmetry_equiv_pos_as_xyz
  1  'x, y, z'
loop_
 _atom_site_type_symbol
 _atom_site_label
 _atom_site_symmetry_multiplicity
 _atom_site_fract_x
 _atom_site_fract_y
 _atom_site_fract_z
 _atom_site_occupancy
  Ti  Ti0  1  0.02375588  0.99683275  0.03146591  1
  Ti  Ti1  1  0.57061890  0.13412923  0.39250421  1
  Ti  Ti2  1  0.62877605  0.58930488  0.99994044  1
  Ti  Ti3  1  0.68193535  0.35250536  0.58539843  1
  Ti  Ti4  1  0.94826456  0.15846385  0.27159526  1
  Ti  Ti5  1  0.90065195  0.19947593  0.79657946  1
  Ti  Ti6  1  0.01159958  0.84063630  0.33551777  1
  Ti  Ti7  1  0.85410888  0.88452574  0.78647996  1
  B  B8  1  0.68333880  0.30531011  0.22884779  1
  B  B9  1  0.68569972  0.07926539  0.67174864  1
  B  B10  1  0.52100967  0.69871398  0.18642500  1
  B  B11  1  0.46443300  0.64803389  0.76199165  1
  B  B12  1  0.20151380  0.11036690  0.17805978  1
  B  B13  1  0.28531052  0.88493918  0.74173975  1
  B  B14  1  0.20367511  0.37093543  0.29565984  1
  B  B15  1  0.08262780  0.36212461  0.77853133  1
  B  B16  1  0.72940735  0.94639260  0.24948836  1
  B  B17  1  0.70434308  0.93954405  0.55667312  1
  B  B18  1  0.68576992  0.76057332  0.22106868  1
  B  B19  1  0.64028095  0.65079372  0.72905247  1
  B  B20  1  0.31690673  0.39005974  0.00296647  1
  B  B21  1  0.22423923  0.25405251  0.46005122  1
  B  B22  1  0.19473925  0.87335083  0.90363038  1
  B  B23  1  0.22187205  0.67692677  0.31224192  1
  Cr  Cr24  1  0.74828069  0.34769599  0.01734557  1
  Cr  Cr25  1  0.84988481  0.11264150  0.53092453  1
  Cr  Cr26  1  0.86198201  0.71417796  0.04503238  1
  Cr  Cr27  1  0.84637606  0.61387078  0.46098581  1
  Cr  Cr28  1  0.07166796  0.93890824  0.67592911  1
  Cr  Cr29  1  0.02207084  0.54841134  0.24381018  1
  Nb  Nb30  1  0.89154764  0.54962692  0.81533843  1
  Nb  Nb31  1  0.43930497  0.95286972  0.18056875  1
  Nb  Nb32  1  0.53455568  0.90444107  0.72704949  1
  Nb  Nb33  1  0.35730394  0.51595574  0.19490302  1
  Nb  Nb34  1  0.47850538  0.37958985  0.82190939  1
  Nb  Nb35  1  0.07524685  0.35682532  0.05210737  1
  Si  Si36  1  0.02572564  0.28919311  0.56577448  1
  Si  Si37  1  0.13851709  0.74483987  0.08453386  1
  Si  Si38  1  -0.00029865  0.72169897  0.62137109  1
  Si  Si39  1  0.49313040  0.24949440  0.11212577  1
  Si  Si40  1  0.43273547  0.19650556  0.61636747  1
  Si  Si41  1  0.41232860  0.78945083  0.97157923  1
  Zr  Zr42  1  0.47761322  0.68493895  0.46271781  1
  Zr  Zr43  1  0.29000801  0.11433691  0.88083531  1
  Zr  Zr44  1  0.26635297  0.99780779  0.46697218  1
  Zr  Zr45  1  0.22231961  0.61709479  0.84643062  1
  Zr  Zr46  1  0.20379668  0.49171649  0.52112388  1
  Zr  Zr47  1  0.67837281  0.07241033  0.97379873  1
  N  N48  1  0.73974578  0.97227221  0.40871943  1
  N  N49  1  0.85744461  0.48722649  0.07381246  1
  N  N50  1  0.70306323  0.56686293  0.60654600  1
  N  N51  1  0.16606878  0.21756450  0.28673432  1
  N  N52  1  0.23662577  0.35330462  0.86037496  1
  N  N53  1  0.25477515  0.80252924  0.38199135  1
  N  N54  1  0.36897509  0.57417922  0.66312083  1
  N  N55  1  0.73310350  0.26353414  0.38736792  1
  N  N56  1  0.69336882  0.28616878  0.82161861  1
  N  N57  1  0.84988195  0.71145652  0.26379177  1
  N  N58  1  0.72342943  0.73229820  0.84753078  1
  N  N59  1  0.02422624  0.01292231  0.46451904  1
  N  N60  1  0.05133261  0.60133278  0.00853594  1
  N  N61  1  0.96130589  0.45555407  0.43201151  1
  N  N62  1  0.49593131  0.95594886  0.95212280  1
  N  N63  1  0.85851506  0.99508562  0.17400996  1
