# generated using pymatgen
data_Hf8Ta7RuC16
_symmetry_space_group_name_H-M   'P 1'
_cell_length_a   9.07493792
_cell_length_b   9.07520312
_cell_length_c   4.56638415
_cell_angle_alpha   89.99566064
_cell_angle_beta   90.00000577
_cell_angle_gamma   90.00018909
_symmetry_Int_Tables_number   1
_chemical_formula_structural   Hf8Ta7RuC16
_chemical_formula_sum   'Hf8 Ta7 Ru1 C16'
_cell_volume   376.07326447
_cell_formula_units_Z   1
loop_
 _symmetry_equiv_pos_site_id
 _symmetry_equiv_pos_as_xyz
  1  'x, y, z'
loop_
 _atom_site_type_symbol
 _atom_site_label
 _atom_site_symmetry_multiplicity
 _atom_site_fract_x
 _atom_site_fract_y
 _atom_site_fract_z
 _atom_site_occupancy
  C  C0  1  0.25167969  0.25247518  0.49999724  1
  C  C1  1  0.25096471  0.99838370  0.00008305  1
  C  C2  1  0.99999941  0.24874336  0.99993862  1
  C  C3  1  0.00000251  0.99755406  0.50006508  1
  C  C4  1  0.24951477  0.74967265  0.50013872  1
  C  C5  1  0.24912363  0.49961085  0.99993464  1
  C  C6  1  -0.00000002  0.74725515  0.00009877  1
  C  C7  1  0.00000404  0.51006034  0.49934951  1
  C  C8  1  0.74832556  0.25247459  0.49999699  1
  C  C9  1  0.74903800  0.99838199  0.00008295  1
  C  C10  1  0.49999878  0.24952663  0.00000628  1
  C  C11  1  0.50000145  0.00070705  0.50007437  1
  C  C12  1  0.75049090  0.74967405  0.50013856  1
  C  C13  1  0.75086715  0.49961249  0.99993443  1
  C  C14  1  0.49999908  0.74981786  0.00009242  1
  C  C15  1  0.50000186  0.50069753  0.49999214  1
  Hf  Hf16  1  0.00000321  0.00508325  0.00010684  1
  Hf  Hf17  1  0.25024113  0.99922884  0.50007151  1
  Hf  Hf18  1  0.24610617  0.50155503  0.49998085  1
  Hf  Hf19  1  0.50000014  0.99914193  0.00006748  1
  Hf  Hf20  1  0.74976117  0.99922948  0.50007138  1
  Hf  Hf21  1  0.50001257  0.50105769  -0.00000152  1
  Hf  Hf22  1  0.75389618  0.50155619  0.49998058  1
  Hf  Hf23  1  0.00000291  0.25425355  0.49995578  1
  Ta  Ta24  1  0.25068241  0.25323291  0.99995381  1
  Ta  Ta25  1  0.00000514  0.74843739  0.50040607  1
  Ta  Ta26  1  0.24459216  0.74880136  0.00006234  1
  Ta  Ta27  1  0.49999876  0.24936950  0.49999541  1
  Ta  Ta28  1  0.74932744  0.25322636  0.99995360  1
  Ta  Ta29  1  0.49999632  0.74964353  0.50004897  1
  Ta  Ta30  1  0.75541517  0.74881144  0.00006217  1
  Ru  Ru31  1  0.99994765  0.48272404  0.99936099  1
