# generated using pymatgen
data_ZrTaC2
_symmetry_space_group_name_H-M   'P 1'
_cell_length_a   7.63472425
_cell_length_b   9.10018899
_cell_length_c   6.53627702
_cell_angle_alpha   90.05614863
_cell_angle_beta   90.00003647
_cell_angle_gamma   90.00000088
_symmetry_Int_Tables_number   1
_chemical_formula_structural   ZrTaC2
_chemical_formula_sum   'Zr8 Ta8 C16'
_cell_volume   454.12353424
_cell_formula_units_Z   8
loop_
 _symmetry_equiv_pos_site_id
 _symmetry_equiv_pos_as_xyz
  1  'x, y, z'
loop_
 _atom_site_type_symbol
 _atom_site_label
 _atom_site_symmetry_multiplicity
 _atom_site_fract_x
 _atom_site_fract_y
 _atom_site_fract_z
 _atom_site_occupancy
  C  C0  1  0.26126480  0.25023414  0.59200204  1
  C  C1  1  0.25118218  0.99955406  0.91820050  1
  C  C2  1  0.00000032  0.25411953  0.06754895  1
  C  C3  1  0.99999982  0.99442304  0.41613785  1
  C  C4  1  0.24843859  0.74974370  0.58261621  1
  C  C5  1  0.24224182  0.50042864  0.92434143  1
  C  C6  1  0.00000018  0.74656418  0.08129602  1
  C  C7  1  0.99999989  0.50440397  0.40294976  1
  C  C8  1  0.73873510  0.25023414  0.59200327  1
  C  C9  1  0.74881770  0.99955408  0.91820111  1
  C  C10  1  0.49999969  0.25026572  0.08177321  1
  C  C11  1  0.50000002  0.99968005  0.41747998  1
  C  C12  1  0.75156162  0.74974369  0.58261670  1
  C  C13  1  0.75775809  0.50042870  0.92434210  1
  C  C14  1  0.49999981  0.74979158  0.08473526  1
  C  C15  1  0.50000021  0.50044027  0.41642507  1
  Zr  Zr16  1  0.00000012  0.99935908  0.07896118  1
  Zr  Zr17  1  0.25107171  0.99827444  0.58408993  1
  Zr  Zr18  1  0.25008387  0.50161700  0.58352566  1
  Zr  Zr19  1  0.49999995  0.00002022  0.08300925  1
  Zr  Zr20  1  0.74892832  0.99827436  0.58409034  1
  Zr  Zr21  1  0.49999997  0.50006298  0.08178316  1
  Zr  Zr22  1  0.74991638  0.50161711  0.58352614  1
  Zr  Zr23  1  0.99999977  0.25026316  0.41427888  1
  Ta  Ta24  1  0.25021564  0.25118886  0.91853104  1
  Ta  Ta25  1  -0.00000003  0.74973855  0.41328137  1
  Ta  Ta26  1  0.24876969  0.74899744  0.91833594  1
  Ta  Ta27  1  0.50000004  0.25002474  0.41978759  1
  Ta  Ta28  1  0.74978426  0.25118877  0.91853175  1
  Ta  Ta29  1  0.50000008  0.74976184  0.41795224  1
  Ta  Ta30  1  0.75123024  0.74899756  0.91833622  1
  Ta  Ta31  1  0.00000016  0.50100435  0.07930987  1
