# generated using pymatgen
data_HfZrC2
_symmetry_space_group_name_H-M   'P 1'
_cell_length_a   9.36155403
_cell_length_b   9.36199325
_cell_length_c   4.67589531
_cell_angle_alpha   89.99992415
_cell_angle_beta   90.00000417
_cell_angle_gamma   90.00001659
_symmetry_Int_Tables_number   1
_chemical_formula_structural   HfZrC2
_chemical_formula_sum   'Hf8 Zr8 C16'
_cell_volume   409.80858384
_cell_formula_units_Z   8
loop_
 _symmetry_equiv_pos_site_id
 _symmetry_equiv_pos_as_xyz
  1  'x, y, z'
loop_
 _atom_site_type_symbol
 _atom_site_label
 _atom_site_symmetry_multiplicity
 _atom_site_fract_x
 _atom_site_fract_y
 _atom_site_fract_z
 _atom_site_occupancy
  C  C0  1  0.24856398  0.24983639  0.49996136  1
  C  C1  1  0.25003949  0.00014955  0.00013205  1
  C  C2  1  0.00000693  0.24846004  0.00013960  1
  C  C3  1  0.99995143  0.00148596  0.50023716  1
  C  C4  1  0.24993872  0.75015391  0.50010139  1
  C  C5  1  0.25146457  0.49985877  0.99993828  1
  C  C6  1  0.00003221  0.75159925  0.00018735  1
  C  C7  1  0.00001871  0.49843237  0.49995843  1
  C  C8  1  0.75139499  0.24986795  0.49988330  1
  C  C9  1  0.74998112  0.00013178  0.00005277  1
  C  C10  1  0.50003346  0.24979820  0.99979714  1
  C  C11  1  0.49998671  0.00014424  0.50006027  1
  C  C12  1  0.75002967  0.75010631  0.50002876  1
  C  C13  1  0.74860365  0.49987695  0.99987949  1
  C  C14  1  0.50001036  0.75022389  0.99986638  1
  C  C15  1  0.49998497  0.49980708  0.49975996  1
  Hf  Hf16  1  0.99998639  0.00049748  0.00026756  1
  Hf  Hf17  1  0.24979724  0.00034584  0.50018050  1
  Hf  Hf18  1  0.25018915  0.49966212  0.49988691  1
  Hf  Hf19  1  0.50002571  0.00014214  0.00000440  1
  Hf  Hf20  1  0.75021084  0.00032600  0.50011667  1
  Hf  Hf21  1  0.49997165  0.49985922  0.99973650  1
  Hf  Hf22  1  0.74977760  0.49968718  0.49983701  1
  Hf  Hf23  1  0.99998338  0.24950637  0.50008612  1
  Zr  Zr24  1  0.24980498  0.24968543  0.99999589  1
  Zr  Zr25  1  0.00001252  0.75050764  0.50015217  1
  Zr  Zr26  1  0.25016220  0.75032938  0.00006914  1
  Zr  Zr27  1  0.50000783  0.24984257  0.49984544  1
  Zr  Zr28  1  0.75019186  0.24972170  0.99993411  1
  Zr  Zr29  1  0.49999038  0.75015842  0.49990615  1
  Zr  Zr30  1  0.74984622  0.75029687  0.00001227  1
  Zr  Zr31  1  0.00000109  0.49949904  0.99998547  1
