# generated using pymatgen
data_Hf7Zr(TaC2)8
_symmetry_space_group_name_H-M   'P 1'
_cell_length_a   9.11230138
_cell_length_b   9.09655751
_cell_length_c   4.56906120
_cell_angle_alpha   89.99999925
_cell_angle_beta   90.00000163
_cell_angle_gamma   89.99999811
_symmetry_Int_Tables_number   1
_chemical_formula_structural   Hf7Zr(TaC2)8
_chemical_formula_sum   'Hf7 Zr1 Ta8 C16'
_cell_volume   378.73210346
_cell_formula_units_Z   1
loop_
 _symmetry_equiv_pos_site_id
 _symmetry_equiv_pos_as_xyz
  1  'x, y, z'
loop_
 _atom_site_type_symbol
 _atom_site_label
 _atom_site_symmetry_multiplicity
 _atom_site_fract_x
 _atom_site_fract_y
 _atom_site_fract_z
 _atom_site_occupancy
  C  C0  1  0.25017330  0.24989725  0.49999997  1
  C  C1  1  0.25009103  0.99999900  0.99999999  1
  C  C2  1  0.99999994  0.24853466  0.99999998  1
  C  C3  1  0.99999998  0.99999898  0.50000000  1
  C  C4  1  0.25017344  0.75010268  0.50000001  1
  C  C5  1  0.25161815  0.50000099  0.00000000  1
  C  C6  1  0.99999995  0.75146545  0.00000004  1
  C  C7  1  0.99999995  0.50000115  0.50000001  1
  C  C8  1  0.74982674  0.24989728  0.49999998  1
  C  C9  1  0.74990899  0.99999903  0.00000000  1
  C  C10  1  0.50000005  0.24990192  0.99999999  1
  C  C11  1  0.50000005  0.99999914  0.49999999  1
  C  C12  1  0.74982655  0.75010267  0.50000002  1
  C  C13  1  0.74838187  0.50000099  0.00000001  1
  C  C14  1  0.50000000  0.75009803  0.00000003  1
  C  C15  1  0.50000002  0.50000084  0.50000000  1
  Hf  Hf16  1  0.99999998  0.99999924  0.99999999  1
  Hf  Hf17  1  0.24995304  0.99999925  0.50000000  1
  Hf  Hf18  1  0.25019433  0.50000068  0.50000000  1
  Hf  Hf19  1  0.50000006  0.99999947  0.00000001  1
  Hf  Hf20  1  0.75004693  0.99999933  0.49999999  1
  Hf  Hf21  1  0.50000005  0.50000048  0.00000001  1
  Hf  Hf22  1  0.74980570  0.50000060  0.50000001  1
  Ta  Ta23  1  0.00000010  0.25002340  0.50000000  1
  Ta  Ta24  1  0.24979004  0.24997290  0.00000001  1
  Ta  Ta25  1  0.99999994  0.74997665  0.49999999  1
  Ta  Ta26  1  0.24979066  0.75002708  0.00000001  1
  Ta  Ta27  1  0.49999990  0.24989207  0.49999998  1
  Ta  Ta28  1  0.75020996  0.24997294  0.99999997  1
  Ta  Ta29  1  0.50000005  0.75010790  0.50000000  1
  Ta  Ta30  1  0.75020932  0.75002702  0.00000000  1
  Zr  Zr31  1  0.99999992  0.50000092  0.99999999  1
