# generated using pymatgen
data_Hf7Ta8PtC16
_symmetry_space_group_name_H-M   'P 1'
_cell_length_a   9.08113267
_cell_length_b   9.05944568
_cell_length_c   4.56630827
_cell_angle_alpha   90.00000013
_cell_angle_beta   89.99999975
_cell_angle_gamma   90.00000006
_symmetry_Int_Tables_number   1
_chemical_formula_structural   Hf7Ta8PtC16
_chemical_formula_sum   'Hf7 Ta8 Pt1 C16'
_cell_volume   375.67030985
_cell_formula_units_Z   1
loop_
 _symmetry_equiv_pos_site_id
 _symmetry_equiv_pos_as_xyz
  1  'x, y, z'
loop_
 _atom_site_type_symbol
 _atom_site_label
 _atom_site_symmetry_multiplicity
 _atom_site_fract_x
 _atom_site_fract_y
 _atom_site_fract_z
 _atom_site_occupancy
  C  C0  1  0.24823961  0.25082214  0.49999999  1
  C  C1  1  0.24940218  0.00000001  0.00000001  1
  C  C2  1  0.00000005  0.25390595  -0.00000001  1
  C  C3  1  -0.00000001  0.00000006  0.50000002  1
  C  C4  1  0.24823957  0.74917775  0.49999999  1
  C  C5  1  0.24904221  0.49999993  0.00000001  1
  C  C6  1  -0.00000008  0.74609460  0.00000001  1
  C  C7  1  -0.00000002  0.49999990  0.49999994  1
  C  C8  1  0.75176042  0.25082214  0.50000003  1
  C  C9  1  0.75059783  0.99999988  -0.00000002  1
  C  C10  1  0.49999995  0.25043705  0.00000000  1
  C  C11  1  0.50000000  0.99999990  0.49999998  1
  C  C12  1  0.75176042  0.74917775  0.49999999  1
  C  C13  1  0.75095777  0.50000006  -0.00000000  1
  C  C14  1  0.50000006  0.74956283  -0.00000001  1
  C  C15  1  0.50000000  0.49999995  0.49999998  1
  Hf  Hf16  1  0.00000001  0.00000010  0.00000001  1
  Hf  Hf17  1  0.24976632  0.00000003  0.50000000  1
  Hf  Hf18  1  0.24623001  0.49999991  0.50000002  1
  Hf  Hf19  1  0.50000001  0.99999996  0.00000000  1
  Hf  Hf20  1  0.75023368  0.99999994  0.50000001  1
  Hf  Hf21  1  0.50000002  0.49999993  0.00000001  1
  Hf  Hf22  1  0.75377006  0.49999996  0.50000002  1
  Ta  Ta23  1  0.00000002  0.25209819  0.50000004  1
  Ta  Ta24  1  0.25517465  0.24678701  0.00000001  1
  Ta  Ta25  1  -0.00000003  0.74790181  0.50000000  1
  Ta  Ta26  1  0.25517465  0.75321299  0.00000001  1
  Ta  Ta27  1  0.49999997  0.25026509  0.50000000  1
  Ta  Ta28  1  0.74482535  0.24678697  -0.00000001  1
  Ta  Ta29  1  0.50000004  0.74973477  0.50000000  1
  Ta  Ta30  1  0.74482537  0.75321297  0.00000001  1
  Pt  Pt31  1  0.99999999  0.50000051  0.99999995  1
