# generated using pymatgen
data_Hf7Ta8MoC16
_symmetry_space_group_name_H-M   'P 1'
_cell_length_a   9.07467662
_cell_length_b   9.05698756
_cell_length_c   4.54521780
_cell_angle_alpha   89.99999987
_cell_angle_beta   90.00000013
_cell_angle_gamma   90.00000006
_symmetry_Int_Tables_number   1
_chemical_formula_structural   Hf7Ta8MoC16
_chemical_formula_sum   'Hf7 Ta8 Mo1 C16'
_cell_volume   373.56796597
_cell_formula_units_Z   1
loop_
 _symmetry_equiv_pos_site_id
 _symmetry_equiv_pos_as_xyz
  1  'x, y, z'
loop_
 _atom_site_type_symbol
 _atom_site_label
 _atom_site_symmetry_multiplicity
 _atom_site_fract_x
 _atom_site_fract_y
 _atom_site_fract_z
 _atom_site_occupancy
  C  C0  1  0.24900704  0.25107940  0.49999995  1
  C  C1  1  0.25051544  0.00000003  0.99999829  1
  C  C2  1  0.00000001  0.25155565  0.99999934  1
  C  C3  1  0.00000001  0.00000005  0.49999768  1
  C  C4  1  0.24900708  0.74892062  0.49999995  1
  C  C5  1  0.24937435  0.50000000  0.00000175  1
  C  C6  1  -0.00000001  0.74844432  0.99999938  1
  C  C7  1  0.00000002  0.49999998  0.50000156  1
  C  C8  1  0.75099296  0.25107939  0.49999995  1
  C  C9  1  0.74948458  0.00000000  0.99999829  1
  C  C10  1  0.49999999  0.24963268  0.00000058  1
  C  C11  1  0.50000001  0.00000000  0.49999900  1
  C  C12  1  0.75099293  0.74892063  0.49999996  1
  C  C13  1  0.75062566  0.50000002  0.00000176  1
  C  C14  1  0.50000001  0.75036734  0.00000059  1
  C  C15  1  0.50000000  0.50000003  0.50000224  1
  Hf  Hf16  1  0.00000001  1.00000000  0.99999778  1
  Hf  Hf17  1  0.25012272  0.00000002  0.49999840  1
  Hf  Hf18  1  0.24783532  0.50000000  0.50000164  1
  Hf  Hf19  1  0.50000001  0.00000002  0.99999897  1
  Hf  Hf20  1  0.74987727  0.00000002  0.49999839  1
  Hf  Hf21  1  0.50000000  0.50000001  0.00000208  1
  Hf  Hf22  1  0.75216468  0.50000003  0.50000163  1
  Ta  Ta23  1  0.00000001  0.25202119  0.49999909  1
  Ta  Ta24  1  0.24805142  0.25212276  0.00000006  1
  Ta  Ta25  1  0.00000001  0.74797856  0.49999907  1
  Ta  Ta26  1  0.24805139  0.74787721  0.00000005  1
  Ta  Ta27  1  0.50000001  0.24956582  0.50000061  1
  Ta  Ta28  1  0.75194857  0.25212273  0.00000004  1
  Ta  Ta29  1  0.50000001  0.75043422  0.50000060  1
  Ta  Ta30  1  0.75194862  0.74787723  0.00000006  1
  Mo  Mo31  1  0.99999997  0.50000011  0.00000123  1
