# generated using pymatgen
data_Hf7Ta8FeC16
_symmetry_space_group_name_H-M   'P 1'
_cell_length_a   9.04407482
_cell_length_b   9.01899646
_cell_length_c   4.55446919
_cell_angle_alpha   89.99999899
_cell_angle_beta   90.00000503
_cell_angle_gamma   90.00000146
_symmetry_Int_Tables_number   1
_chemical_formula_structural   Hf7Ta8FeC16
_chemical_formula_sum   'Hf7 Ta8 Fe1 C16'
_cell_volume   371.50112350
_cell_formula_units_Z   1
loop_
 _symmetry_equiv_pos_site_id
 _symmetry_equiv_pos_as_xyz
  1  'x, y, z'
loop_
 _atom_site_type_symbol
 _atom_site_label
 _atom_site_symmetry_multiplicity
 _atom_site_fract_x
 _atom_site_fract_y
 _atom_site_fract_z
 _atom_site_occupancy
  C  C0  1  0.24904407  0.25162529  0.49999965  1
  C  C1  1  0.24954255  0.00000019  0.99999986  1
  C  C2  1  -0.00000000  0.25690444  0.99999939  1
  C  C3  1  0.00000000  0.99999966  0.49999984  1
  C  C4  1  0.24904382  0.74837363  0.49999967  1
  C  C5  1  0.24532915  0.50000024  0.00000039  1
  C  C6  1  0.00000000  0.74309468  0.99999942  1
  C  C7  1  0.99999999  0.49999863  0.49999570  1
  C  C8  1  0.75095591  0.25162529  0.49999960  1
  C  C9  1  0.75045742  0.00000024  0.99999993  1
  C  C10  1  0.50000001  0.25021680  0.00000013  1
  C  C11  1  0.50000000  0.99999980  0.50000017  1
  C  C12  1  0.75095614  0.74837365  0.49999959  1
  C  C13  1  0.75467082  0.50000016  0.00000039  1
  C  C14  1  0.49999995  0.74978344  0.00000014  1
  C  C15  1  0.49999998  0.49999972  0.50000038  1
  Hf  Hf16  1  0.00000000  0.99999582  0.99999955  1
  Hf  Hf17  1  0.24866967  0.00000022  0.50000014  1
  Hf  Hf18  1  0.24534789  0.49999936  0.50000016  1
  Hf  Hf19  1  0.50000001  0.00000063  0.00000030  1
  Hf  Hf20  1  0.75133033  0.00000032  0.50000006  1
  Hf  Hf21  1  0.49999992  0.49999938  0.00000048  1
  Hf  Hf22  1  0.75465212  0.49999927  0.49999993  1
  Ta  Ta23  1  -0.00000001  0.25837960  0.49999802  1
  Ta  Ta24  1  0.24516756  0.25416156  0.00000005  1
  Ta  Ta25  1  0.00000000  0.74161832  0.49999792  1
  Ta  Ta26  1  0.24517044  0.74583695  0.00000001  1
  Ta  Ta27  1  0.50000004  0.25085010  0.50000045  1
  Ta  Ta28  1  0.75483244  0.25416159  0.00000002  1
  Ta  Ta29  1  0.49999997  0.74915018  0.50000047  1
  Ta  Ta30  1  0.75482948  0.74583696  0.00000001  1
  Fe  Fe31  1  0.00000032  0.50001390  0.00000820  1
