# generated using pymatgen
data_HfTaC2
_symmetry_space_group_name_H-M   'P 1'
_cell_length_a   9.10418285
_cell_length_b   9.08911360
_cell_length_c   4.56530163
_cell_angle_alpha   89.99999925
_cell_angle_beta   90.00000000
_cell_angle_gamma   89.99999861
_symmetry_Int_Tables_number   1
_chemical_formula_structural   HfTaC2
_chemical_formula_sum   'Hf8 Ta8 C16'
_cell_volume   377.77392617
_cell_formula_units_Z   8
loop_
 _symmetry_equiv_pos_site_id
 _symmetry_equiv_pos_as_xyz
  1  'x, y, z'
loop_
 _atom_site_type_symbol
 _atom_site_label
 _atom_site_symmetry_multiplicity
 _atom_site_fract_x
 _atom_site_fract_y
 _atom_site_fract_z
 _atom_site_occupancy
  C  C0  1  0.24999955  0.25000003  0.50000004  1
  C  C1  1  0.24999951  0.00000083  0.00000001  1
  C  C2  1  0.00000049  0.25000002  0.99999999  1
  C  C3  1  0.99999988  0.99999902  0.50000002  1
  C  C4  1  0.24999826  0.75000000  0.49999998  1
  C  C5  1  0.24999949  0.49999918  0.00000000  1
  C  C6  1  0.99999921  0.74999997  0.99999998  1
  C  C7  1  0.99999991  0.50000101  0.50000002  1
  C  C8  1  0.75000051  0.24999999  0.50000004  1
  C  C9  1  0.75000053  0.99999916  0.00000002  1
  C  C10  1  0.49999945  0.25000000  0.99999998  1
  C  C11  1  0.50000010  0.00000081  0.49999998  1
  C  C12  1  0.75000175  0.75000000  0.50000004  1
  C  C13  1  0.75000054  0.50000081  0.00000000  1
  C  C14  1  0.50000075  0.74999999  0.99999997  1
  C  C15  1  0.50000006  0.49999919  0.49999996  1
  Hf  Hf16  1  0.99999990  0.99999936  0.00000004  1
  Hf  Hf17  1  0.24999972  0.99999990  0.49999998  1
  Hf  Hf18  1  0.24999969  0.50000014  0.49999999  1
  Hf  Hf19  1  0.50000011  0.99999996  0.00000002  1
  Hf  Hf20  1  0.75000028  0.99999938  0.50000003  1
  Hf  Hf21  1  0.50000005  0.50000004  0.99999996  1
  Hf  Hf22  1  0.75000028  0.50000060  0.50000000  1
  Hf  Hf23  1  0.99999995  0.50000065  0.00000000  1
  Ta  Ta24  1  0.99999985  0.25000000  0.50000004  1
  Ta  Ta25  1  0.24999985  0.25000001  0.00000000  1
  Ta  Ta26  1  0.99999930  0.74999998  0.50000006  1
  Ta  Ta27  1  0.24999934  0.75000002  0.99999993  1
  Ta  Ta28  1  0.50000009  0.25000002  0.49999999  1
  Ta  Ta29  1  0.75000018  0.25000000  0.00000002  1
  Ta  Ta30  1  0.50000072  0.74999998  0.49999993  1
  Ta  Ta31  1  0.75000065  0.74999996  0.00000001  1
