# generated using pymatgen
data_Hf7Ta8CrC16
_symmetry_space_group_name_H-M   'P 1'
_cell_length_a   9.05345972
_cell_length_b   9.03263370
_cell_length_c   4.54107028
_cell_angle_alpha   90.00000000
_cell_angle_beta   89.99999975
_cell_angle_gamma   90.00000006
_symmetry_Int_Tables_number   1
_chemical_formula_structural   Hf7Ta8CrC16
_chemical_formula_sum   'Hf7 Ta8 Cr1 C16'
_cell_volume   371.35322142
_cell_formula_units_Z   1
loop_
 _symmetry_equiv_pos_site_id
 _symmetry_equiv_pos_as_xyz
  1  'x, y, z'
loop_
 _atom_site_type_symbol
 _atom_site_label
 _atom_site_symmetry_multiplicity
 _atom_site_fract_x
 _atom_site_fract_y
 _atom_site_fract_z
 _atom_site_occupancy
  C  C0  1  0.24899935  0.25146060  0.49999424  1
  C  C1  1  0.25006070  0.99999574  0.99997763  1
  C  C2  1  0.00000001  0.25582916  0.00000416  1
  C  C3  1  -0.00000000  0.99999863  0.49998060  1
  C  C4  1  0.24899834  0.74854503  0.49999415  1
  C  C5  1  0.24542210  0.49999812  0.00002332  1
  C  C6  1  -0.00000001  0.74418420  0.00000412  1
  C  C7  1  0.00000007  0.50000746  0.50003124  1
  C  C8  1  0.75100068  0.25146055  0.49999412  1
  C  C9  1  0.74993926  0.99999569  0.99997771  1
  C  C10  1  0.49999997  0.25002543  0.99999048  1
  C  C11  1  0.50000002  0.00000082  0.49997605  1
  C  C12  1  0.75100166  0.74854507  0.49999413  1
  C  C13  1  0.75457793  0.49999816  0.00002330  1
  C  C14  1  0.50000003  0.74997348  0.99999049  1
  C  C15  1  0.49999996  0.50000441  0.50000804  1
  Hf  Hf16  1  0.00000001  0.00003889  0.99997703  1
  Hf  Hf17  1  0.24934222  0.99999857  0.49998101  1
  Hf  Hf18  1  0.24643637  0.50000362  0.50001960  1
  Hf  Hf19  1  0.49999999  0.99999416  0.99997805  1
  Hf  Hf20  1  0.75065780  0.99999858  0.49998100  1
  Hf  Hf21  1  0.49999999  0.50000539  0.00000973  1
  Hf  Hf22  1  0.75356364  0.50000358  0.50001966  1
  Ta  Ta23  1  0.00000001  0.25521130  0.49998798  1
  Ta  Ta24  1  0.24567745  0.25369529  0.00000264  1
  Ta  Ta25  1  0.00000001  0.74480421  0.49998785  1
  Ta  Ta26  1  0.24564418  0.74631293  0.00000265  1
  Ta  Ta27  1  0.49999999  0.25023807  0.49999463  1
  Ta  Ta28  1  0.75432254  0.25369526  0.00000267  1
  Ta  Ta29  1  0.49999998  0.74975821  0.49999461  1
  Ta  Ta30  1  0.75435581  0.74631298  0.00000257  1
  Cr  Cr31  1  0.99999997  0.49990644  0.00009456  1
