# generated using pymatgen
data_Hf7Ta8IrC16
_symmetry_space_group_name_H-M   'P 1'
_cell_length_a   9.06131500
_cell_length_b   9.04577688
_cell_length_c   4.56629808
_cell_angle_alpha   89.99999975
_cell_angle_beta   90.00000050
_cell_angle_gamma   89.99999962
_symmetry_Int_Tables_number   1
_chemical_formula_structural   Hf7Ta8IrC16
_chemical_formula_sum   'Hf7 Ta8 Ir1 C16'
_cell_volume   374.28408222
_cell_formula_units_Z   1
loop_
 _symmetry_equiv_pos_site_id
 _symmetry_equiv_pos_as_xyz
  1  'x, y, z'
loop_
 _atom_site_type_symbol
 _atom_site_label
 _atom_site_symmetry_multiplicity
 _atom_site_fract_x
 _atom_site_fract_y
 _atom_site_fract_z
 _atom_site_occupancy
  C  C0  1  0.24812350  0.25148174  0.49999701  1
  C  C1  1  0.24988621  0.99999976  0.99999716  1
  C  C2  1  0.99999999  0.25256919  0.99999915  1
  C  C3  1  0.99999999  0.99999988  0.49999699  1
  C  C4  1  0.24812302  0.74851710  0.49999704  1
  C  C5  1  0.24939552  0.49999998  0.00000110  1
  C  C6  1  0.00000003  0.74743435  0.99999915  1
  C  C7  1  0.99999997  0.49999834  0.50003719  1
  C  C8  1  0.75187641  0.25148171  0.49999706  1
  C  C9  1  0.75011375  0.99999978  0.99999717  1
  C  C10  1  0.49999997  0.24993650  0.99999836  1
  C  C11  1  0.49999999  0.99999963  0.49999796  1
  C  C12  1  0.75187692  0.74851710  0.49999705  1
  C  C13  1  0.75060467  0.49999996  0.00000106  1
  C  C14  1  0.49999997  0.75006336  0.99999834  1
  C  C15  1  0.49999997  0.49999980  0.50000004  1
  Hf  Hf16  1  0.99999996  0.99999848  0.99999424  1
  Hf  Hf17  1  0.24949390  0.00000006  0.49999790  1
  Hf  Hf18  1  0.24642903  0.49999927  0.49999904  1
  Hf  Hf19  1  0.49999998  0.00000029  0.99999844  1
  Hf  Hf20  1  0.75050605  0.00000003  0.49999797  1
  Hf  Hf21  1  0.50000007  0.49999957  0.99999999  1
  Hf  Hf22  1  0.75357097  0.49999929  0.49999918  1
  Ta  Ta23  1  0.99999995  0.25604532  0.49998625  1
  Ta  Ta24  1  0.25118031  0.25015031  0.99999909  1
  Ta  Ta25  1  0.99999994  0.74395294  0.49998627  1
  Ta  Ta26  1  0.25118141  0.74984866  0.99999910  1
  Ta  Ta27  1  0.50000001  0.25022497  0.49999985  1
  Ta  Ta28  1  0.74881961  0.25015031  0.99999906  1
  Ta  Ta29  1  0.50000002  0.74977485  0.49999986  1
  Ta  Ta30  1  0.74881857  0.74984863  0.99999915  1
  Ir  Ir31  1  0.00000034  0.50000885  0.00003276  1
