# generated using pymatgen
data_Hf7Ta8RhC16
_symmetry_space_group_name_H-M   'P 1'
_cell_length_a   9.06608828
_cell_length_b   9.04763721
_cell_length_c   4.56187054
_cell_angle_alpha   90.00000025
_cell_angle_beta   90.00000063
_cell_angle_gamma   89.99999987
_symmetry_Int_Tables_number   1
_chemical_formula_structural   Hf7Ta8RhC16
_chemical_formula_sum   'Hf7 Ta8 Rh1 C16'
_cell_volume   374.19508436
_cell_formula_units_Z   1
loop_
 _symmetry_equiv_pos_site_id
 _symmetry_equiv_pos_as_xyz
  1  'x, y, z'
loop_
 _atom_site_type_symbol
 _atom_site_label
 _atom_site_symmetry_multiplicity
 _atom_site_fract_x
 _atom_site_fract_y
 _atom_site_fract_z
 _atom_site_occupancy
  C  C0  1  0.24842836  0.25131691  0.50000000  1
  C  C1  1  0.24957951  0.99999999  0.00000000  1
  C  C2  1  0.00000000  0.25247464  0.00000000  1
  C  C3  1  0.00000000  0.00000007  0.50000000  1
  C  C4  1  0.24842836  0.74868309  0.50000000  1
  C  C5  1  0.24980663  0.49999999  0.00000000  1
  C  C6  1  0.00000000  0.74752547  0.00000001  1
  C  C7  1  0.00000000  0.50000007  0.50000003  1
  C  C8  1  0.75157164  0.25131691  0.50000000  1
  C  C9  1  0.75042049  0.00000000  0.00000000  1
  C  C10  1  0.50000000  0.24998856  0.00000000  1
  C  C11  1  0.50000000  0.99999995  0.50000000  1
  C  C12  1  0.75157164  0.74868309  0.50000000  1
  C  C13  1  0.75019336  0.49999998  0.00000000  1
  C  C14  1  0.50000000  0.75001134  0.00000000  1
  C  C15  1  0.49999999  0.50000000  0.50000000  1
  Hf  Hf16  1  0.00000000  0.00000017  0.00000000  1
  Hf  Hf17  1  0.24929533  0.99999999  0.50000000  1
  Hf  Hf18  1  0.24625658  0.50000000  0.49999999  1
  Hf  Hf19  1  0.50000000  0.99999991  0.00000000  1
  Hf  Hf20  1  0.75070467  0.99999999  0.50000000  1
  Hf  Hf21  1  0.49999999  0.50000002  0.00000000  1
  Hf  Hf22  1  0.75374341  0.50000001  0.50000000  1
  Ta  Ta23  1  0.00000000  0.25639037  0.50000001  1
  Ta  Ta24  1  0.25079573  0.25072528  0.00000001  1
  Ta  Ta25  1  0.00000000  0.74360978  0.49999999  1
  Ta  Ta26  1  0.25079547  0.74927470  0.00000000  1
  Ta  Ta27  1  0.50000000  0.25073861  0.50000000  1
  Ta  Ta28  1  0.74920427  0.25072529  0.00000000  1
  Ta  Ta29  1  0.49999999  0.74926132  0.50000000  1
  Ta  Ta30  1  0.74920452  0.74927470  0.99999999  1
  Rh  Rh31  1  0.00000002  0.49999982  0.00000002  1
