# generated using pymatgen
data_Hf7Ta8OsC16
_symmetry_space_group_name_H-M   'P 1'
_cell_length_a   9.05063291
_cell_length_b   9.06159223
_cell_length_c   4.55656774
_cell_angle_alpha   90.09976075
_cell_angle_beta   89.99998177
_cell_angle_gamma   90.00023161
_symmetry_Int_Tables_number   1
_chemical_formula_structural   Hf7Ta8OsC16
_chemical_formula_sum   'Hf7 Ta8 Os1 C16'
_cell_volume   373.69788339
_cell_formula_units_Z   1
loop_
 _symmetry_equiv_pos_site_id
 _symmetry_equiv_pos_as_xyz
  1  'x, y, z'
loop_
 _atom_site_type_symbol
 _atom_site_label
 _atom_site_symmetry_multiplicity
 _atom_site_fract_x
 _atom_site_fract_y
 _atom_site_fract_z
 _atom_site_occupancy
  C  C0  1  0.24792843  0.25247851  0.50162089  1
  C  C1  1  0.25047866  0.99912413  0.00133823  1
  C  C2  1  0.00000261  0.24829551  0.00531247  1
  C  C3  1  0.00000117  0.00176999  0.50172199  1
  C  C4  1  0.24914753  0.74982773  0.50095118  1
  C  C5  1  0.24801097  0.49958527  0.99895359  1
  C  C6  1  0.99999992  0.74603079  0.99992791  1
  C  C7  1  0.00000775  0.50731521  0.48754780  1
  C  C8  1  0.75208076  0.25247868  0.50161580  1
  C  C9  1  0.74952412  0.99912146  0.00133716  1
  C  C10  1  0.49999931  0.24999977  0.00053268  1
  C  C11  1  0.50000164  0.00071051  0.50085235  1
  C  C12  1  0.75086090  0.74982891  0.50094932  1
  C  C13  1  0.75196846  0.49958973  0.99895368  1
  C  C14  1  0.49999986  0.74995801  0.00038275  1
  C  C15  1  0.50000116  0.50053541  0.49957133  1
  Hf  Hf16  1  0.00000352  0.00513586  0.00249620  1
  Hf  Hf17  1  0.25020661  0.99958442  0.50092988  1
  Hf  Hf18  1  0.24577610  0.50164024  0.50019745  1
  Hf  Hf19  1  0.50000027  0.99926108  0.00055085  1
  Hf  Hf20  1  0.74979536  0.99958461  0.50092866  1
  Hf  Hf21  1  0.50001454  0.50109276  0.99964968  1
  Hf  Hf22  1  0.75422864  0.50164153  0.50019533  1
  Ta  Ta23  1  0.00000933  0.25254977  0.50839708  1
  Ta  Ta24  1  0.25072713  0.25282973  0.00054559  1
  Ta  Ta25  1  0.00001070  0.74885889  0.50440858  1
  Ta  Ta26  1  0.24612270  0.74980730  0.00000902  1
  Ta  Ta27  1  0.49999305  0.24997218  0.49991518  1
  Ta  Ta28  1  0.74928585  0.25282636  0.00054134  1
  Ta  Ta29  1  0.49999199  0.74989514  0.49970500  1
  Ta  Ta30  1  0.75388662  0.74981560  0.00000716  1
  Os  Os31  1  0.99993433  0.47885492  0.97995389  1
