# generated using pymatgen
data_Hf7Ta8AgC16
_symmetry_space_group_name_H-M   'P 1'
_cell_length_a   9.12978050
_cell_length_b   9.09074239
_cell_length_c   4.55960421
_cell_angle_alpha   90.00000013
_cell_angle_beta   89.99999987
_cell_angle_gamma   90.00000032
_symmetry_Int_Tables_number   1
_chemical_formula_structural   Hf7Ta8AgC16
_chemical_formula_sum   'Hf7 Ta8 Ag1 C16'
_cell_volume   378.43111149
_cell_formula_units_Z   1
loop_
 _symmetry_equiv_pos_site_id
 _symmetry_equiv_pos_as_xyz
  1  'x, y, z'
loop_
 _atom_site_type_symbol
 _atom_site_label
 _atom_site_symmetry_multiplicity
 _atom_site_fract_x
 _atom_site_fract_y
 _atom_site_fract_z
 _atom_site_occupancy
  C  C0  1  0.24873726  0.25073155  0.49999999  1
  C  C1  1  0.25017227  0.00000001  -0.00000001  1
  C  C2  1  0.00000001  0.24391594  0.00000001  1
  C  C3  1  -0.00000000  0.99999999  0.50000001  1
  C  C4  1  0.24873724  0.74926845  0.50000002  1
  C  C5  1  0.25798235  0.50000000  -0.00000001  1
  C  C6  1  0.00000002  0.75608409  -0.00000001  1
  C  C7  1  0.00000003  0.50000001  0.49999998  1
  C  C8  1  0.75126276  0.25073154  0.50000002  1
  C  C9  1  0.74982774  -0.00000000  -0.00000000  1
  C  C10  1  0.50000000  0.24996292  0.00000001  1
  C  C11  1  0.50000001  0.00000000  0.50000002  1
  C  C12  1  0.75126274  0.74926847  0.49999998  1
  C  C13  1  0.74201760  0.50000002  0.00000002  1
  C  C14  1  0.49999999  0.75003707  -0.00000002  1
  C  C15  1  0.49999997  0.50000001  0.50000000  1
  Hf  Hf16  1  0.00000000  -0.00000008  0.00000001  1
  Hf  Hf17  1  0.24988952  0.00000000  0.50000001  1
  Hf  Hf18  1  0.24691079  0.50000000  0.50000001  1
  Hf  Hf19  1  0.49999999  0.00000001  0.00000000  1
  Hf  Hf20  1  0.75011048  1.00000000  0.50000000  1
  Hf  Hf21  1  0.50000000  0.50000000  -0.00000000  1
  Hf  Hf22  1  0.75308921  0.50000000  0.50000001  1
  Ta  Ta23  1  -0.00000002  0.25321379  0.49999997  1
  Ta  Ta24  1  0.25282746  0.25041341  0.00000002  1
  Ta  Ta25  1  -0.00000002  0.74678621  0.50000001  1
  Ta  Ta26  1  0.25282742  0.74958660  -0.00000001  1
  Ta  Ta27  1  0.50000000  0.25087205  0.50000002  1
  Ta  Ta28  1  0.74717257  0.25041339  0.00000000  1
  Ta  Ta29  1  0.50000001  0.74912797  0.50000001  1
  Ta  Ta30  1  0.74717258  0.74958661  -0.00000000  1
  Ag  Ag31  1  0.99999997  0.49999996  0.99999999  1
