# generated using pymatgen
data_Hf7Ta8RuC16
_symmetry_space_group_name_H-M   'P 1'
_cell_length_a   9.05592861
_cell_length_b   9.03536012
_cell_length_c   4.56372106
_cell_angle_alpha   89.99999987
_cell_angle_beta   89.99999962
_cell_angle_gamma   90.00000032
_symmetry_Int_Tables_number   1
_chemical_formula_structural   Hf7Ta8RuC16
_chemical_formula_sum   'Hf7 Ta8 Ru1 C16'
_cell_volume   373.41997796
_cell_formula_units_Z   1
loop_
 _symmetry_equiv_pos_site_id
 _symmetry_equiv_pos_as_xyz
  1  'x, y, z'
loop_
 _atom_site_type_symbol
 _atom_site_label
 _atom_site_symmetry_multiplicity
 _atom_site_fract_x
 _atom_site_fract_y
 _atom_site_fract_z
 _atom_site_occupancy
  C  C0  1  0.24870996  0.25164131  0.50000133  1
  C  C1  1  0.24995463  0.00000077  0.00000111  1
  C  C2  1  0.00000000  0.25189063  0.00000060  1
  C  C3  1  0.00000000  0.99999907  0.50000099  1
  C  C4  1  0.24870901  0.74835661  0.50000133  1
  C  C5  1  0.24987490  0.50000030  0.99999967  1
  C  C6  1  -0.00000000  0.74811303  0.00000060  1
  C  C7  1  0.00000000  0.49999517  0.49998623  1
  C  C8  1  0.75129002  0.25164132  0.50000133  1
  C  C9  1  0.75004537  0.00000077  0.00000111  1
  C  C10  1  0.50000000  0.24986026  0.00000086  1
  C  C11  1  0.49999999  0.99999948  0.50000109  1
  C  C12  1  0.75129098  0.74835662  0.50000134  1
  C  C13  1  0.75012512  0.50000029  0.99999966  1
  C  C14  1  0.50000000  0.75013986  0.00000086  1
  C  C15  1  0.50000000  0.49999960  0.50000022  1
  Hf  Hf16  1  -0.00000001  0.99999403  0.00000206  1
  Hf  Hf17  1  0.24917278  0.00000035  0.50000084  1
  Hf  Hf18  1  0.24651104  0.49999865  0.50000050  1
  Hf  Hf19  1  0.50000001  0.00000086  0.00000078  1
  Hf  Hf20  1  0.75082721  0.00000034  0.50000083  1
  Hf  Hf21  1  0.49999999  0.49999894  0.00000037  1
  Hf  Hf22  1  0.75348894  0.49999866  0.50000050  1
  Ta  Ta23  1  1.00000000  0.25653255  0.50000472  1
  Ta  Ta24  1  0.24682174  0.25312248  0.00000026  1
  Ta  Ta25  1  0.99999999  0.74346487  0.50000473  1
  Ta  Ta26  1  0.24682634  0.74687502  0.00000026  1
  Ta  Ta27  1  0.50000001  0.25021777  0.50000029  1
  Ta  Ta28  1  0.75317826  0.25312248  0.00000026  1
  Ta  Ta29  1  0.50000000  0.74978240  0.50000029  1
  Ta  Ta30  1  0.75317365  0.74687502  0.00000026  1
  Ru  Ru31  1  0.00000003  0.50002049  0.99998477  1
