# generated using pymatgen
data_Hf7Ta8TcC16
_symmetry_space_group_name_H-M   'P 1'
_cell_length_a   9.06238467
_cell_length_b   9.04768747
_cell_length_c   4.55079249
_cell_angle_alpha   89.99999975
_cell_angle_beta   89.99999987
_cell_angle_gamma   89.99999975
_symmetry_Int_Tables_number   1
_chemical_formula_structural   Hf7Ta8TcC16
_chemical_formula_sum   'Hf7 Ta8 Tc1 C16'
_cell_volume   373.13596936
_cell_formula_units_Z   1
loop_
 _symmetry_equiv_pos_site_id
 _symmetry_equiv_pos_as_xyz
  1  'x, y, z'
loop_
 _atom_site_type_symbol
 _atom_site_label
 _atom_site_symmetry_multiplicity
 _atom_site_fract_x
 _atom_site_fract_y
 _atom_site_fract_z
 _atom_site_occupancy
  C  C0  1  0.24861149  0.25147332  0.49999949  1
  C  C1  1  0.25027785  1.00000000  0.99999900  1
  C  C2  1  -0.00000000  0.25127941  0.99999972  1
  C  C3  1  -0.00000000  0.99999997  0.49999885  1
  C  C4  1  0.24861149  0.74852669  0.49999951  1
  C  C5  1  0.24966444  0.49999998  0.00000105  1
  C  C6  1  -0.00000003  0.74872053  0.99999974  1
  C  C7  1  0.00000002  0.50000003  0.50000544  1
  C  C8  1  0.75138852  0.25147330  0.49999949  1
  C  C9  1  0.74972216  0.99999999  0.99999899  1
  C  C10  1  0.50000000  0.24965748  0.99999946  1
  C  C11  1  0.50000001  0.00000003  0.49999898  1
  C  C12  1  0.75138852  0.74852671  0.49999951  1
  C  C13  1  0.75033553  0.50000001  0.00000106  1
  C  C14  1  0.50000003  0.75034253  0.99999946  1
  C  C15  1  0.50000000  0.50000001  0.50000018  1
  Hf  Hf16  1  0.00000001  0.00000002  0.99999875  1
  Hf  Hf17  1  0.24984382  0.00000002  0.49999914  1
  Hf  Hf18  1  0.24743567  0.50000000  0.50000073  1
  Hf  Hf19  1  0.50000000  0.00000003  0.99999911  1
  Hf  Hf20  1  0.75015619  -0.00000000  0.49999915  1
  Hf  Hf21  1  0.50000001  0.50000000  0.00000021  1
  Hf  Hf22  1  0.75256433  0.50000000  0.50000076  1
  Ta  Ta23  1  0.00000001  0.25357197  0.49999839  1
  Ta  Ta24  1  0.24697215  0.25285567  0.99999995  1
  Ta  Ta25  1  0.00000003  0.74642804  0.49999829  1
  Ta  Ta26  1  0.24697218  0.74714438  0.99999996  1
  Ta  Ta27  1  0.49999999  0.24939489  0.49999972  1
  Ta  Ta28  1  0.75302783  0.25285561  0.99999995  1
  Ta  Ta29  1  0.49999999  0.75060513  0.49999973  1
  Ta  Ta30  1  0.75302786  0.74714437  0.99999995  1
  Tc  Tc31  1  0.99999995  0.49999983  0.00000626  1
