# generated using pymatgen
data_Hf7Ta8TiC16
_symmetry_space_group_name_H-M   'P 1'
_cell_length_a   9.07306777
_cell_length_b   9.05496096
_cell_length_c   4.54890910
_cell_angle_alpha   89.99999975
_cell_angle_beta   90.00000139
_cell_angle_gamma   90.00000177
_symmetry_Int_Tables_number   1
_chemical_formula_structural   Hf7Ta8TiC16
_chemical_formula_sum   'Hf7 Ta8 Ti1 C16'
_cell_volume   373.72142444
_cell_formula_units_Z   1
loop_
 _symmetry_equiv_pos_site_id
 _symmetry_equiv_pos_as_xyz
  1  'x, y, z'
loop_
 _atom_site_type_symbol
 _atom_site_label
 _atom_site_symmetry_multiplicity
 _atom_site_fract_x
 _atom_site_fract_y
 _atom_site_fract_z
 _atom_site_occupancy
  C  C0  1  0.24965450  0.25074899  0.49999997  1
  C  C1  1  0.24952832  0.00000001  0.99999998  1
  C  C2  1  0.00000001  0.25466524  -0.00000002  1
  C  C3  1  0.00000001  0.00000000  0.49999998  1
  C  C4  1  0.24965454  0.74925099  0.49999998  1
  C  C5  1  0.24538930  0.49999997  0.00000006  1
  C  C6  1  0.00000000  0.74533479  0.00000001  1
  C  C7  1  0.00000001  0.49999998  0.50000004  1
  C  C8  1  0.75034545  0.25074900  0.49999999  1
  C  C9  1  0.75047169  0.00000002  0.99999994  1
  C  C10  1  0.50000000  0.25032391  0.99999998  1
  C  C11  1  0.50000000  0.00000001  0.49999998  1
  C  C12  1  0.75034548  0.74925099  0.49999999  1
  C  C13  1  0.75461072  0.50000000  0.00000002  1
  C  C14  1  0.50000002  0.74967607  -0.00000000  1
  C  C15  1  0.49999998  0.49999999  0.50000000  1
  Hf  Hf16  1  0.00000001  0.00000004  0.99999995  1
  Hf  Hf17  1  0.24922413  -0.00000000  0.49999998  1
  Hf  Hf18  1  0.24766915  0.50000000  0.50000001  1
  Hf  Hf19  1  0.49999999  0.99999996  0.99999999  1
  Hf  Hf20  1  0.75077589  0.99999999  0.50000000  1
  Hf  Hf21  1  0.50000003  0.50000001  0.00000001  1
  Hf  Hf22  1  0.75233083  0.50000001  0.50000001  1
  Ta  Ta23  1  -0.00000002  0.25344484  0.49999998  1
  Ta  Ta24  1  0.24641566  0.25218582  0.99999997  1
  Ta  Ta25  1  -0.00000001  0.74655518  0.50000000  1
  Ta  Ta26  1  0.24641563  0.74781419  0.00000000  1
  Ta  Ta27  1  0.50000003  0.25067534  0.49999999  1
  Ta  Ta28  1  0.75358434  0.25218579  0.00000001  1
  Ta  Ta29  1  0.49999999  0.74932465  0.50000000  1
  Ta  Ta30  1  0.75358436  0.74781422  0.99999997  1
  Ti  Ti31  1  0.99999995  0.49999996  0.00000024  1
