# generated using pymatgen
data_Hf7Ta8CoC16
_symmetry_space_group_name_H-M   'P 1'
_cell_length_a   9.04963149
_cell_length_b   9.01873085
_cell_length_c   4.55458398
_cell_angle_alpha   90.00000088
_cell_angle_beta   90.00000050
_cell_angle_gamma   90.00000013
_symmetry_Int_Tables_number   1
_chemical_formula_structural   Hf7Ta8CoC16
_chemical_formula_sum   'Hf7 Ta8 Co1 C16'
_cell_volume   371.72779467
_cell_formula_units_Z   1
loop_
 _symmetry_equiv_pos_site_id
 _symmetry_equiv_pos_as_xyz
  1  'x, y, z'
loop_
 _atom_site_type_symbol
 _atom_site_label
 _atom_site_symmetry_multiplicity
 _atom_site_fract_x
 _atom_site_fract_y
 _atom_site_fract_z
 _atom_site_occupancy
  C  C0  1  0.24901261  0.25135053  0.49999999  1
  C  C1  1  0.24912821  0.00000004  0.99999997  1
  C  C2  1  0.00000000  0.25783906  0.99999997  1
  C  C3  1  0.00000000  0.00000005  0.49999995  1
  C  C4  1  0.24901266  0.74864954  0.49999999  1
  C  C5  1  0.24509997  0.49999999  0.00000004  1
  C  C6  1  0.00000000  0.74216098  0.99999999  1
  C  C7  1  0.99999998  0.50000007  0.50000007  1
  C  C8  1  0.75098734  0.25135054  0.49999997  1
  C  C9  1  0.75087178  0.00000003  0.99999996  1
  C  C10  1  0.49999998  0.25036276  0.00000000  1
  C  C11  1  0.50000001  0.00000000  0.49999999  1
  C  C12  1  0.75098731  0.74864954  0.49999995  1
  C  C13  1  0.75490001  0.49999998  0.00000003  1
  C  C14  1  0.49999998  0.74963720  0.00000000  1
  C  C15  1  0.49999998  0.50000000  0.50000002  1
  Hf  Hf16  1  0.99999999  0.00000023  0.99999994  1
  Hf  Hf17  1  0.24861236  0.00000001  0.49999997  1
  Hf  Hf18  1  0.24511625  0.50000004  0.50000002  1
  Hf  Hf19  1  0.50000002  0.99999994  0.99999999  1
  Hf  Hf20  1  0.75138765  0.00000000  0.49999997  1
  Hf  Hf21  1  0.49999994  0.50000004  0.00000002  1
  Hf  Hf22  1  0.75488369  0.50000006  0.50000002  1
  Ta  Ta23  1  0.99999994  0.25760529  0.49999991  1
  Ta  Ta24  1  0.24741120  0.25269979  0.99999999  1
  Ta  Ta25  1  0.99999994  0.74239492  0.49999990  1
  Ta  Ta26  1  0.24741092  0.74730025  0.00000000  1
  Ta  Ta27  1  0.50000005  0.25140185  0.50000001  1
  Ta  Ta28  1  0.75258877  0.25269985  0.99999999  1
  Ta  Ta29  1  0.50000005  0.74859814  0.50000001  1
  Ta  Ta30  1  0.75258905  0.74730021  0.99999999  1
  Co  Co31  1  0.00000038  0.49999911  0.00000036  1
