# generated using pymatgen
data_Hf7Ta8NbC16
_symmetry_space_group_name_H-M   'P 1'
_cell_length_a   9.08450067
_cell_length_b   9.07613305
_cell_length_c   4.55243265
_cell_angle_alpha   90.00000000
_cell_angle_beta   90.00000151
_cell_angle_gamma   90.00000404
_symmetry_Int_Tables_number   1
_chemical_formula_structural   Hf7Ta8NbC16
_chemical_formula_sum   'Hf7 Ta8 Nb1 C16'
_cell_volume   375.35779951
_cell_formula_units_Z   1
loop_
 _symmetry_equiv_pos_site_id
 _symmetry_equiv_pos_as_xyz
  1  'x, y, z'
loop_
 _atom_site_type_symbol
 _atom_site_label
 _atom_site_symmetry_multiplicity
 _atom_site_fract_x
 _atom_site_fract_y
 _atom_site_fract_z
 _atom_site_occupancy
  C  C0  1  0.24956356  0.25060004  0.49999999  1
  C  C1  1  0.25010826  -0.00000005  0.00000002  1
  C  C2  1  0.99999943  0.25152975  0.00000002  1
  C  C3  1  -0.00000005  0.00000008  0.50000007  1
  C  C4  1  0.24956368  0.74940002  0.49999999  1
  C  C5  1  0.24806379  0.50000016  -0.00000011  1
  C  C6  1  0.00000003  0.74847028  0.00000003  1
  C  C7  1  0.99999996  0.49999990  0.50000016  1
  C  C8  1  0.75043639  0.25060004  0.49999998  1
  C  C9  1  0.74989171  0.00000028  0.00000000  1
  C  C10  1  0.50000042  0.24992384  0.99999997  1
  C  C11  1  0.50000012  0.00000003  0.49999997  1
  C  C12  1  0.75043631  0.74940005  0.50000004  1
  C  C13  1  0.75193625  0.49999970  0.00000007  1
  C  C14  1  0.50000002  0.75007629  0.00000002  1
  C  C15  1  0.50000011  0.49999999  0.49999996  1
  Hf  Hf16  1  0.99999994  0.00000007  -0.00000005  1
  Hf  Hf17  1  0.24990566  -0.00000012  0.50000002  1
  Hf  Hf18  1  0.24931252  0.50000007  0.50000006  1
  Hf  Hf19  1  0.50000008  0.00000003  0.00000004  1
  Hf  Hf20  1  0.75009413  0.00000014  0.50000005  1
  Hf  Hf21  1  0.50000012  0.49999991  0.00000010  1
  Hf  Hf22  1  0.75068743  0.49999992  0.49999992  1
  Ta  Ta23  1  0.99999994  0.25118971  0.49999995  1
  Ta  Ta24  1  0.24880666  0.25057339  0.00000018  1
  Ta  Ta25  1  0.00000011  0.74881027  0.50000018  1
  Ta  Ta26  1  0.24880663  0.74942665  0.99999989  1
  Ta  Ta27  1  0.50000015  0.24972457  0.50000007  1
  Ta  Ta28  1  0.75119352  0.25057334  -0.00000006  1
  Ta  Ta29  1  0.49999987  0.75027548  0.50000009  1
  Ta  Ta30  1  0.75119336  0.74942656  -0.00000009  1
  Nb  Nb31  1  -0.00000005  0.49999969  0.99999947  1
