# generated using pymatgen
data_Hf7Ta8ZnC16
_symmetry_space_group_name_H-M   'P 1'
_cell_length_a   9.09825835
_cell_length_b   9.07628398
_cell_length_c   4.55151495
_cell_angle_alpha   90.00000050
_cell_angle_beta   89.99999962
_cell_angle_gamma   90.00000000
_symmetry_Int_Tables_number   1
_chemical_formula_structural   Hf7Ta8ZnC16
_chemical_formula_sum   'Hf7 Ta8 Zn1 C16'
_cell_volume   375.85671522
_cell_formula_units_Z   1
loop_
 _symmetry_equiv_pos_site_id
 _symmetry_equiv_pos_as_xyz
  1  'x, y, z'
loop_
 _atom_site_type_symbol
 _atom_site_label
 _atom_site_symmetry_multiplicity
 _atom_site_fract_x
 _atom_site_fract_y
 _atom_site_fract_z
 _atom_site_occupancy
  C  C0  1  0.24956345  0.25084304  0.50000000  1
  C  C1  1  0.25014865  0.99999997  1.00000000  1
  C  C2  1  0.00000010  0.24707861  0.00000011  1
  C  C3  1  0.00000002  0.99999996  0.49999997  1
  C  C4  1  0.24956346  0.74915704  0.50000001  1
  C  C5  1  0.25290616  0.50000008  0.99999997  1
  C  C6  1  -0.00000006  0.75292128  0.99999987  1
  C  C7  1  -0.00000005  0.50000009  0.50000010  1
  C  C8  1  0.75043656  0.25084304  0.49999995  1
  C  C9  1  0.74985139  0.99999998  0.99999998  1
  C  C10  1  0.49999993  0.25018421  -0.00000003  1
  C  C11  1  0.50000001  0.99999999  0.50000001  1
  C  C12  1  0.75043652  0.74915704  0.50000003  1
  C  C13  1  0.74709386  0.50000012  0.00000005  1
  C  C14  1  0.50000001  0.74981582  0.00000000  1
  C  C15  1  0.50000001  0.50000008  0.50000000  1
  Hf  Hf16  1  0.00000003  -0.00000003  -0.00000000  1
  Hf  Hf17  1  0.24917226  -0.00000001  0.49999997  1
  Hf  Hf18  1  0.24464156  0.50000007  0.50000001  1
  Hf  Hf19  1  0.49999999  0.99999994  0.99999999  1
  Hf  Hf20  1  0.75082775  -0.00000009  0.50000000  1
  Hf  Hf21  1  0.49999998  0.50000012  0.99999998  1
  Hf  Hf22  1  0.75535846  0.50000013  0.50000001  1
  Ta  Ta23  1  0.00000010  0.25518735  0.49999992  1
  Ta  Ta24  1  0.24685904  0.25222508  0.00000005  1
  Ta  Ta25  1  -0.00000004  0.74481259  0.50000003  1
  Ta  Ta26  1  0.24685886  0.74777493  0.00000001  1
  Ta  Ta27  1  0.49999992  0.25166855  0.49999997  1
  Ta  Ta28  1  0.75314097  0.25222504  0.00000003  1
  Ta  Ta29  1  0.50000005  0.74833149  0.50000001  1
  Ta  Ta30  1  0.75314118  0.74777493  0.99999996  1
  Zn  Zn31  1  0.99999993  0.49999956  0.00000004  1
