# generated using pymatgen
data_Hf7Ta8WC16
_symmetry_space_group_name_H-M   'P 1'
_cell_length_a   9.06903964
_cell_length_b   9.05826280
_cell_length_c   4.54577057
_cell_angle_alpha   89.99999987
_cell_angle_beta   89.99999962
_cell_angle_gamma   89.99999981
_symmetry_Int_Tables_number   1
_chemical_formula_structural   Hf7Ta8WC16
_chemical_formula_sum   'Hf7 Ta8 W1 C16'
_cell_volume   373.43389044
_cell_formula_units_Z   1
loop_
 _symmetry_equiv_pos_site_id
 _symmetry_equiv_pos_as_xyz
  1  'x, y, z'
loop_
 _atom_site_type_symbol
 _atom_site_label
 _atom_site_symmetry_multiplicity
 _atom_site_fract_x
 _atom_site_fract_y
 _atom_site_fract_z
 _atom_site_occupancy
  C  C0  1  0.24895084  0.25096093  0.50000001  1
  C  C1  1  0.25052786  0.99999996  0.99999998  1
  C  C2  1  -0.00000001  0.25314196  0.00000004  1
  C  C3  1  -0.00000000  0.99999999  0.50000000  1
  C  C4  1  0.24895106  0.74903913  0.49999997  1
  C  C5  1  0.24721410  0.49999997  0.00000002  1
  C  C6  1  0.00000001  0.74685779  -0.00000005  1
  C  C7  1  -0.00000004  0.49999991  0.50000005  1
  C  C8  1  0.75104918  0.25096097  0.50000000  1
  C  C9  1  0.74947216  0.99999988  0.99999999  1
  C  C10  1  0.49999998  0.24966593  0.00000003  1
  C  C11  1  0.50000000  -0.00000012  0.49999999  1
  C  C12  1  0.75104890  0.74903912  0.49999994  1
  C  C13  1  0.75278588  0.49999999  0.00000002  1
  C  C14  1  0.50000003  0.75033412  0.99999998  1
  C  C15  1  0.50000009  0.50000022  0.50000002  1
  Hf  Hf16  1  0.00000001  0.00000075  0.99999998  1
  Hf  Hf17  1  0.25035071  0.00000002  0.49999997  1
  Hf  Hf18  1  0.24819094  0.50000007  0.49999998  1
  Hf  Hf19  1  0.49999997  0.99999976  0.00000001  1
  Hf  Hf20  1  0.74964926  0.00000008  0.49999999  1
  Hf  Hf21  1  0.50000009  0.50000024  0.00000002  1
  Hf  Hf22  1  0.75180894  0.49999998  0.49999998  1
  Ta  Ta23  1  0.00000002  0.25082399  0.50000004  1
  Ta  Ta24  1  0.24931458  0.25086097  -0.00000005  1
  Ta  Ta25  1  0.00000004  0.74917645  0.49999997  1
  Ta  Ta26  1  0.24931374  0.74913917  0.00000000  1
  Ta  Ta27  1  0.50000000  0.24943933  0.49999998  1
  Ta  Ta28  1  0.75068544  0.25086094  0.00000002  1
  Ta  Ta29  1  0.49999997  0.75056075  0.49999999  1
  Ta  Ta30  1  0.75068628  0.74913915  0.00000001  1
  W  W31  1  0.99999996  0.49999867  0.00000001  1
