# generated using pymatgen
data_Hf7Ta8NiC16
_symmetry_space_group_name_H-M   'P 1'
_cell_length_a   9.06702688
_cell_length_b   9.03081667
_cell_length_c   4.55587235
_cell_angle_alpha   89.99999975
_cell_angle_beta   89.99999987
_cell_angle_gamma   90.00000000
_symmetry_Int_Tables_number   1
_chemical_formula_structural   Hf7Ta8NiC16
_chemical_formula_sum   'Hf7 Ta8 Ni1 C16'
_cell_volume   373.04693523
_cell_formula_units_Z   1
loop_
 _symmetry_equiv_pos_site_id
 _symmetry_equiv_pos_as_xyz
  1  'x, y, z'
loop_
 _atom_site_type_symbol
 _atom_site_label
 _atom_site_symmetry_multiplicity
 _atom_site_fract_x
 _atom_site_fract_y
 _atom_site_fract_z
 _atom_site_occupancy
  C  C0  1  0.24918004  0.25124523  0.49999998  1
  C  C1  1  0.24933486  -0.00000012  0.00000002  1
  C  C2  1  -0.00000019  0.25465869  0.00000002  1
  C  C3  1  -0.00000009  -0.00000001  0.49999997  1
  C  C4  1  0.24918012  0.74875475  0.49999999  1
  C  C5  1  0.24867082  0.50000019  0.00000005  1
  C  C6  1  -0.00000002  0.74534118  -0.00000002  1
  C  C7  1  -0.00000019  0.50000009  0.50000003  1
  C  C8  1  0.75081996  0.25124532  0.50000000  1
  C  C9  1  0.75066515  -0.00000002  -0.00000004  1
  C  C10  1  0.50000006  0.25044212  -0.00000001  1
  C  C11  1  0.50000010  -0.00000008  0.49999998  1
  C  C12  1  0.75081985  0.74875468  0.49999995  1
  C  C13  1  0.75132921  0.50000005  0.99999994  1
  C  C14  1  0.49999999  0.74955790  0.00000004  1
  C  C15  1  0.50000018  0.50000009  0.49999999  1
  Hf  Hf16  1  0.00000019  0.00000012  -0.00000002  1
  Hf  Hf17  1  0.24865490  -0.00000027  0.49999999  1
  Hf  Hf18  1  0.24494545  0.50000028  0.50000001  1
  Hf  Hf19  1  0.49999983  -0.00000028  0.00000002  1
  Hf  Hf20  1  0.75134507  -0.00000012  0.50000001  1
  Hf  Hf21  1  0.50000006  0.50000027  0.00000004  1
  Hf  Hf22  1  0.75505455  0.50000012  0.49999999  1
  Ta  Ta23  1  0.99999997  0.25798448  0.50000001  1
  Ta  Ta24  1  0.24716467  0.25294554  0.00000003  1
  Ta  Ta25  1  0.00000008  0.74201549  0.50000003  1
  Ta  Ta26  1  0.24716485  0.74705444  0.00000003  1
  Ta  Ta27  1  0.49999999  0.25146659  0.50000001  1
  Ta  Ta28  1  0.75283538  0.25294573  -0.00000000  1
  Ta  Ta29  1  0.49999989  0.74853338  0.50000001  1
  Ta  Ta30  1  0.75283515  0.74705430  -0.00000000  1
  Ni  Ni31  1  0.00000009  0.49999991  0.00000003  1
