# generated using pymatgen
data_Hf7Ta8CdC16
_symmetry_space_group_name_H-M   'P 1'
_cell_length_a   9.13468529
_cell_length_b   9.12302462
_cell_length_c   4.56650063
_cell_angle_alpha   89.99999925
_cell_angle_beta   89.99999950
_cell_angle_gamma   90.00000019
_symmetry_Int_Tables_number   1
_chemical_formula_structural   Hf7Ta8CdC16
_chemical_formula_sum   'Hf7 Ta8 Cd1 C16'
_cell_volume   380.55370835
_cell_formula_units_Z   1
loop_
 _symmetry_equiv_pos_site_id
 _symmetry_equiv_pos_as_xyz
  1  'x, y, z'
loop_
 _atom_site_type_symbol
 _atom_site_label
 _atom_site_symmetry_multiplicity
 _atom_site_fract_x
 _atom_site_fract_y
 _atom_site_fract_z
 _atom_site_occupancy
  C  C0  1  0.24917007  0.25037065  0.49999999  1
  C  C1  1  0.25073782  0.99999998  -0.00000000  1
  C  C2  1  0.00000003  0.24035208  0.00000001  1
  C  C3  1  0.00000002  1.00000000  0.50000000  1
  C  C4  1  0.24917011  0.74962937  0.50000000  1
  C  C5  1  0.25914394  0.50000002  -0.00000002  1
  C  C6  1  0.00000001  0.75964787  1.00000000  1
  C  C7  1  0.00000000  0.50000000  0.49999998  1
  C  C8  1  0.75082994  0.25037067  0.49999999  1
  C  C9  1  0.74926219  0.99999997  0.00000001  1
  C  C10  1  0.49999998  0.24987442  -0.00000001  1
  C  C11  1  0.49999998  0.00000001  0.50000000  1
  C  C12  1  0.75082989  0.74962935  0.50000001  1
  C  C13  1  0.74085605  0.50000007  0.00000001  1
  C  C14  1  0.49999997  0.75012562  0.00000003  1
  C  C15  1  0.50000001  0.50000008  0.50000000  1
  Hf  Hf16  1  0.00000001  0.99999995  0.00000001  1
  Hf  Hf17  1  0.25033183  0.99999999  0.49999999  1
  Hf  Hf18  1  0.24635677  0.50000002  0.50000002  1
  Hf  Hf19  1  0.49999997  -0.00000001  -0.00000004  1
  Hf  Hf20  1  0.74966818  0.99999998  0.49999998  1
  Hf  Hf21  1  0.50000001  0.50000005  0.00000001  1
  Hf  Hf22  1  0.75364324  0.50000003  0.49999996  1
  Ta  Ta23  1  0.00000002  0.25108107  0.49999997  1
  Ta  Ta24  1  0.25160834  0.24934542  0.00000005  1
  Ta  Ta25  1  -0.00000003  0.74891884  0.50000002  1
  Ta  Ta26  1  0.25160827  0.75065462  0.00000004  1
  Ta  Ta27  1  0.49999999  0.25096081  0.50000000  1
  Ta  Ta28  1  0.74839164  0.24934542  0.99999998  1
  Ta  Ta29  1  0.50000000  0.74903920  0.50000001  1
  Ta  Ta30  1  0.74839173  0.75065460  0.99999999  1
  Cd  Cd31  1  -0.00000002  0.49999992  0.00000002  1
