# generated using pymatgen
data_Hf7Ta8AuC16
_symmetry_space_group_name_H-M   'P 1'
_cell_length_a   9.11994657
_cell_length_b   9.08334012
_cell_length_c   4.56958308
_cell_angle_alpha   90.00000038
_cell_angle_beta   89.99999925
_cell_angle_gamma   90.00000000
_symmetry_Int_Tables_number   1
_chemical_formula_structural   Hf7Ta8AuC16
_chemical_formula_sum   'Hf7 Ta8 Au1 C16'
_cell_volume   378.54232746
_cell_formula_units_Z   1
loop_
 _symmetry_equiv_pos_site_id
 _symmetry_equiv_pos_as_xyz
  1  'x, y, z'
loop_
 _atom_site_type_symbol
 _atom_site_label
 _atom_site_symmetry_multiplicity
 _atom_site_fract_x
 _atom_site_fract_y
 _atom_site_fract_z
 _atom_site_occupancy
  C  C0  1  0.24836116  0.25068338  0.50000005  1
  C  C1  1  0.24970150  0.00000000  -0.00000001  1
  C  C2  1  -0.00000045  0.24681097  1.00000000  1
  C  C3  1  -0.00000021  0.99999973  0.50000000  1
  C  C4  1  0.24836095  0.74931680  0.50000003  1
  C  C5  1  0.25612772  0.50000020  0.00000001  1
  C  C6  1  -0.00000031  0.75318812  -0.00000001  1
  C  C7  1  -0.00000019  0.50000013  0.49999998  1
  C  C8  1  0.75163872  0.25068331  0.50000001  1
  C  C9  1  0.75029843  0.00000018  -0.00000001  1
  C  C10  1  0.50000049  0.25031571  -0.00000001  1
  C  C11  1  0.50000019  0.00000035  0.50000002  1
  C  C12  1  0.75163894  0.74931683  0.50000000  1
  C  C13  1  0.74387224  0.50000003  -0.00000001  1
  C  C14  1  0.50000029  0.74968456  -0.00000002  1
  C  C15  1  0.50000015  0.49999998  0.50000000  1
  Hf  Hf16  1  -0.00000020  0.99999982  -0.00000000  1
  Hf  Hf17  1  0.25008726  -0.00000000  0.50000001  1
  Hf  Hf18  1  0.24677584  0.50000016  0.50000001  1
  Hf  Hf19  1  0.50000030  0.00000013  -0.00000001  1
  Hf  Hf20  1  0.74991267  0.00000010  0.50000001  1
  Hf  Hf21  1  0.50000015  0.50000010  0.00000000  1
  Hf  Hf22  1  0.75322417  0.50000008  0.50000000  1
  Ta  Ta23  1  -0.00000013  0.25249705  0.50000002  1
  Ta  Ta24  1  0.25574626  0.24742452  -0.00000002  1
  Ta  Ta25  1  -0.00000011  0.74750302  0.49999996  1
  Ta  Ta26  1  0.25574620  0.75257553  -0.00000004  1
  Ta  Ta27  1  0.50000019  0.25030676  0.50000003  1
  Ta  Ta28  1  0.74425379  0.24742426  0.00000002  1
  Ta  Ta29  1  0.50000015  0.74969343  0.49999997  1
  Ta  Ta30  1  0.74425380  0.75257573  -0.00000001  1
  Au  Au31  1  0.00000005  0.49999907  1.00000000  1
