# generated using pymatgen
data_Hf7Ta8CuC16
_symmetry_space_group_name_H-M   'P 1'
_cell_length_a   9.08779187
_cell_length_b   9.06021165
_cell_length_c   4.54804434
_cell_angle_alpha   89.99999962
_cell_angle_beta   90.00000151
_cell_angle_gamma   89.99999943
_symmetry_Int_Tables_number   1
_chemical_formula_structural   Hf7Ta8CuC16
_chemical_formula_sum   'Hf7 Ta8 Cu1 C16'
_cell_volume   374.47377207
_cell_formula_units_Z   1
loop_
 _symmetry_equiv_pos_site_id
 _symmetry_equiv_pos_as_xyz
  1  'x, y, z'
loop_
 _atom_site_type_symbol
 _atom_site_label
 _atom_site_symmetry_multiplicity
 _atom_site_fract_x
 _atom_site_fract_y
 _atom_site_fract_z
 _atom_site_occupancy
  C  C0  1  0.24952839  0.25097450  0.50000002  1
  C  C1  1  0.24960930  0.99999983  0.00000000  1
  C  C2  1  0.00000003  0.24951181  0.00000004  1
  C  C3  1  0.00000000  0.99999977  0.49999999  1
  C  C4  1  0.24952854  0.74902544  0.50000000  1
  C  C5  1  0.25158200  0.50000025  0.00000000  1
  C  C6  1  0.00000003  0.75048811  0.99999997  1
  C  C7  1  0.00000002  0.50000029  0.49999998  1
  C  C8  1  0.75047160  0.25097449  0.50000000  1
  C  C9  1  0.75039069  0.99999982  0.00000000  1
  C  C10  1  0.49999999  0.25021409  0.00000000  1
  C  C11  1  0.49999999  0.99999991  0.50000000  1
  C  C12  1  0.75047146  0.74902545  0.49999998  1
  C  C13  1  0.74841802  0.50000025  0.99999998  1
  C  C14  1  0.50000000  0.74978586  0.00000000  1
  C  C15  1  0.49999999  0.50000003  0.50000001  1
  Hf  Hf16  1  0.99999998  0.99999987  0.00000000  1
  Hf  Hf17  1  0.24897332  0.99999993  0.50000000  1
  Hf  Hf18  1  0.24478226  0.50000001  0.50000002  1
  Hf  Hf19  1  0.50000000  0.99999997  0.00000000  1
  Hf  Hf20  1  0.75102667  0.99999988  0.49999999  1
  Hf  Hf21  1  0.49999999  0.50000001  0.99999999  1
  Hf  Hf22  1  0.75521776  0.50000005  0.50000000  1
  Ta  Ta23  1  0.99999999  0.25476535  0.50000000  1
  Ta  Ta24  1  0.24650055  0.25271313  0.00000001  1
  Ta  Ta25  1  0.99999999  0.74523421  0.50000000  1
  Ta  Ta26  1  0.24650112  0.74728676  0.00000003  1
  Ta  Ta27  1  0.50000000  0.25171969  0.50000001  1
  Ta  Ta28  1  0.75349943  0.25271311  0.00000000  1
  Ta  Ta29  1  0.50000002  0.74828034  0.50000000  1
  Ta  Ta30  1  0.75349887  0.74728677  0.99999997  1
  Cu  Cu31  1  0.00000000  0.50000104  0.00000000  1
