# generated using pymatgen
data_Hf7Ta8VC16
_symmetry_space_group_name_H-M   'P 1'
_cell_length_a   9.06163315
_cell_length_b   9.04571809
_cell_length_c   4.53981425
_cell_angle_alpha   90.00000013
_cell_angle_beta   89.99999975
_cell_angle_gamma   90.00000051
_symmetry_Int_Tables_number   1
_chemical_formula_structural   Hf7Ta8VC16
_chemical_formula_sum   'Hf7 Ta8 V1 C16'
_cell_volume   372.12393851
_cell_formula_units_Z   1
loop_
 _symmetry_equiv_pos_site_id
 _symmetry_equiv_pos_as_xyz
  1  'x, y, z'
loop_
 _atom_site_type_symbol
 _atom_site_label
 _atom_site_symmetry_multiplicity
 _atom_site_fract_x
 _atom_site_fract_y
 _atom_site_fract_z
 _atom_site_occupancy
  C  C0  1  0.24924941  0.25120063  0.50000002  1
  C  C1  1  0.24992727  0.99999997  -0.00000000  1
  C  C2  1  0.00000000  0.25580365  -0.00000000  1
  C  C3  1  0.00000001  0.00000000  0.49999999  1
  C  C4  1  0.24924937  0.74879939  0.50000003  1
  C  C5  1  0.24446262  0.50000001  0.00000001  1
  C  C6  1  -0.00000000  0.74419641  0.00000000  1
  C  C7  1  0.00000000  0.50000000  0.50000001  1
  C  C8  1  0.75075059  0.25120063  0.49999998  1
  C  C9  1  0.75007273  0.99999996  -0.00000000  1
  C  C10  1  0.50000000  0.25012426  0.00000001  1
  C  C11  1  0.50000000  1.00000000  0.50000000  1
  C  C12  1  0.75075064  0.74879939  0.49999996  1
  C  C13  1  0.75553738  0.50000002  0.00000000  1
  C  C14  1  0.49999999  0.74987573  -0.00000000  1
  C  C15  1  0.50000000  0.50000001  0.50000000  1
  Hf  Hf16  1  0.00000000  0.00000017  0.00000001  1
  Hf  Hf17  1  0.24942656  0.00000001  0.50000000  1
  Hf  Hf18  1  0.24693115  0.49999998  0.49999998  1
  Hf  Hf19  1  0.50000000  0.99999995  -0.00000000  1
  Hf  Hf20  1  0.75057344  -0.00000002  0.50000000  1
  Hf  Hf21  1  0.50000000  0.50000004  0.00000001  1
  Hf  Hf22  1  0.75306885  0.50000002  0.50000001  1
  Ta  Ta23  1  0.00000000  0.25474205  0.50000000  1
  Ta  Ta24  1  0.24608646  0.25291654  -0.00000003  1
  Ta  Ta25  1  0.00000000  0.74525799  0.50000000  1
  Ta  Ta26  1  0.24608625  0.74708348  -0.00000004  1
  Ta  Ta27  1  0.50000001  0.25037970  0.50000001  1
  Ta  Ta28  1  0.75391352  0.25291654  -0.00000001  1
  Ta  Ta29  1  0.50000000  0.74962029  0.50000000  1
  Ta  Ta30  1  0.75391376  0.74708347  0.00000005  1
  V  V31  1  0.00000001  0.49999974  0.00000002  1
