# generated using pymatgen
data_Hf7Ta8MnC16
_symmetry_space_group_name_H-M   'P 1'
_cell_length_a   9.04669564
_cell_length_b   9.02267052
_cell_length_c   4.54847463
_cell_angle_alpha   89.99999962
_cell_angle_beta   89.99999987
_cell_angle_gamma   90.00000006
_symmetry_Int_Tables_number   1
_chemical_formula_structural   Hf7Ta8MnC16
_chemical_formula_sum   'Hf7 Ta8 Mn1 C16'
_cell_volume   371.27085208
_cell_formula_units_Z   1
loop_
 _symmetry_equiv_pos_site_id
 _symmetry_equiv_pos_as_xyz
  1  'x, y, z'
loop_
 _atom_site_type_symbol
 _atom_site_label
 _atom_site_symmetry_multiplicity
 _atom_site_fract_x
 _atom_site_fract_y
 _atom_site_fract_z
 _atom_site_occupancy
  C  C0  1  0.24900678  0.25162787  0.50000001  1
  C  C1  1  0.24976406  0.99999998  -0.00000000  1
  C  C2  1  0.00000001  0.25613943  0.99999996  1
  C  C3  1  -0.00000001  0.00000000  0.50000000  1
  C  C4  1  0.24900677  0.74837214  0.50000000  1
  C  C5  1  0.24554839  0.50000000  0.00000003  1
  C  C6  1  0.00000001  0.74386060  0.00000003  1
  C  C7  1  -0.00000000  0.50000005  0.50000001  1
  C  C8  1  0.75099323  0.25162788  0.49999999  1
  C  C9  1  0.75023596  0.99999998  -0.00000000  1
  C  C10  1  0.50000000  0.25008132  0.00000001  1
  C  C11  1  0.50000000  -0.00000000  0.50000000  1
  C  C12  1  0.75099322  0.74837215  0.50000000  1
  C  C13  1  0.75445162  0.50000001  0.99999997  1
  C  C14  1  0.50000000  0.74991868  0.00000002  1
  C  C15  1  0.50000000  0.50000002  0.50000001  1
  Hf  Hf16  1  -0.00000000  0.00000012  0.00000000  1
  Hf  Hf17  1  0.24899610  0.00000002  0.50000001  1
  Hf  Hf18  1  0.24592959  0.50000001  0.50000004  1
  Hf  Hf19  1  0.49999999  0.99999999  0.00000000  1
  Hf  Hf20  1  0.75100390  0.00000001  0.50000002  1
  Hf  Hf21  1  0.49999995  0.50000000  0.00000000  1
  Hf  Hf22  1  0.75407042  0.49999999  0.49999997  1
  Ta  Ta23  1  -0.00000001  0.25678932  0.49999998  1
  Ta  Ta24  1  0.24472863  0.25437249  -0.00000000  1
  Ta  Ta25  1  0.99999999  0.74321069  0.50000001  1
  Ta  Ta26  1  0.24472854  0.74562755  0.00000002  1
  Ta  Ta27  1  0.50000000  0.25040817  0.49999999  1
  Ta  Ta28  1  0.75527136  0.25437251  0.99999999  1
  Ta  Ta29  1  0.50000001  0.74959182  0.50000000  1
  Ta  Ta30  1  0.75527145  0.74562752  -0.00000000  1
  Mn  Mn31  1  0.00000007  0.49999969  -0.00000002  1
