# generated using pymatgen
data_CrCoNiW
_symmetry_space_group_name_H-M   'P 1'
_cell_length_a   7.37636602
_cell_length_b   7.18489227
_cell_length_c   7.85850806
_cell_angle_alpha   102.83316885
_cell_angle_beta   103.73956235
_cell_angle_gamma   90.06484131
_symmetry_Int_Tables_number   1
_chemical_formula_structural   CrCoNiW
_chemical_formula_sum   'Cr8 Co8 Ni8 W8'
_cell_volume   393.82590856
_cell_formula_units_Z   8
loop_
 _symmetry_equiv_pos_site_id
 _symmetry_equiv_pos_as_xyz
  1  'x, y, z'
loop_
 _atom_site_type_symbol
 _atom_site_label
 _atom_site_symmetry_multiplicity
 _atom_site_fract_x
 _atom_site_fract_y
 _atom_site_fract_z
 _atom_site_occupancy
  Co  Co0  1  0.67443651  0.94317802  0.75186784  1
  Co  Co1  1  0.43979328  0.68968387  0.74561609  1
  Co  Co2  1  0.87856292  0.37881642  0.50361000  1
  Co  Co3  1  0.81514051  0.56448532  0.25310181  1
  Co  Co4  1  0.44983198  0.19571188  0.74830688  1
  Co  Co5  1  0.61878242  0.12664533  0.50130905  1
  Co  Co6  1  0.12329686  0.12465761  0.49484857  1
  Co  Co7  1  0.50291071  0.99497843  0.98909678  1
  Cr  Cr8  1  0.69452553  0.43233366  0.74258329  1
  Cr  Cr9  1  0.20018279  0.95886463  0.74163468  1
  Cr  Cr10  1  0.19166377  0.41750642  0.73809174  1
  Cr  Cr11  1  0.37524400  0.34161003  0.49541026  1
  Cr  Cr12  1  0.83114022  0.08417111  0.26666165  1
  Cr  Cr13  1  0.05131459  0.81080606  0.25406240  1
  Cr  Cr14  1  0.74719570  0.23981398  0.00822315  1
  Cr  Cr15  1  0.97442405  0.48698480  0.00650325  1
  Ni  Ni16  1  0.87461924  0.86936503  0.48680935  1
  Ni  Ni17  1  0.37464854  0.88687824  0.50037935  1
  Ni  Ni18  1  0.75907881  0.76219866  0.00949548  1
  Ni  Ni19  1  0.56455271  0.29942732  0.25453963  1
  Ni  Ni20  1  0.30867796  0.56013258  0.25012937  1
  Ni  Ni21  1  0.29580543  0.05466482  0.25021268  1
  Ni  Ni22  1  0.06403432  0.32051694  0.25743707  1
  Ni  Ni23  1  0.99848867  0.01167155  0.01046037  1
  W  W24  1  0.92826528  0.70963689  0.75592498  1
  W  W25  1  0.92124186  0.17087939  0.73162245  1
  W  W26  1  0.61201033  0.61651153  0.49467024  1
  W  W27  1  0.56794080  0.84059659  0.25190809  1
  W  W28  1  0.14132111  0.62187565  0.51002577  1
  W  W29  1  0.52591264  0.49755990  0.99957197  1
  W  W30  1  0.24034697  0.74172721  0.98686495  1
  W  W31  1  0.25460948  0.24611013  0.00902083  1
