# generated using pymatgen
data_HfMo3C4
_symmetry_space_group_name_H-M   'P 1'
_cell_length_a   8.85418304
_cell_length_b   4.43272669
_cell_length_c   4.43701585
_cell_angle_alpha   90.00000000
_cell_angle_beta   90.00000000
_cell_angle_gamma   90.00000000
_symmetry_Int_Tables_number   1
_chemical_formula_structural   HfMo3C4
_chemical_formula_sum   'Hf2 Mo6 C8'
_cell_volume   174.14476781
_cell_formula_units_Z   2
loop_
 _symmetry_equiv_pos_site_id
 _symmetry_equiv_pos_as_xyz
  1  'x, y, z'
loop_
 _atom_site_type_symbol
 _atom_site_label
 _atom_site_symmetry_multiplicity
 _atom_site_fract_x
 _atom_site_fract_y
 _atom_site_fract_z
 _atom_site_occupancy
  Mo  Mo0  1  0.00295833  0.00000000  0.00000000  1
  Mo  Mo1  1  0.00313696  0.50000000  0.50000000  1
  Mo  Mo2  1  0.24704167  0.00000000  0.50000000  1
  Mo  Mo3  1  0.24686304  0.50000000  0.00000000  1
  Mo  Mo4  1  0.49903874  0.00000000  0.00000000  1
  Mo  Mo5  1  0.75096126  0.00000000  0.50000000  1
  C  C6  1  0.00149583  0.00000000  0.50000000  1
  C  C7  1  0.00379444  0.50000000  0.00000000  1
  C  C8  1  0.24850417  0.00000000  0.00000000  1
  C  C9  1  0.24620556  0.50000000  0.50000000  1
  C  C10  1  0.49815353  0.00000000  0.50000000  1
  C  C11  1  0.49653314  0.50000000  0.00000000  1
  C  C12  1  0.75184647  0.00000000  0.00000000  1
  C  C13  1  0.75346686  0.50000000  0.50000000  1
  Hf  Hf14  1  0.49691257  0.50000000  0.50000000  1
  Hf  Hf15  1  0.75308743  0.50000000  0.00000000  1
