# generated using pymatgen
data_HfSi3C4
_symmetry_space_group_name_H-M   'P 1'
_cell_length_a   8.18519492
_cell_length_b   4.39047328
_cell_length_c   4.39047328
_cell_angle_alpha   90.00000000
_cell_angle_beta   90.00000000
_cell_angle_gamma   90.00000000
_symmetry_Int_Tables_number   1
_chemical_formula_structural   HfSi3C4
_chemical_formula_sum   'Hf2 Si6 C8'
_cell_volume   157.77990960
_cell_formula_units_Z   2
loop_
 _symmetry_equiv_pos_site_id
 _symmetry_equiv_pos_as_xyz
  1  'x, y, z'
loop_
 _atom_site_type_symbol
 _atom_site_label
 _atom_site_symmetry_multiplicity
 _atom_site_fract_x
 _atom_site_fract_y
 _atom_site_fract_z
 _atom_site_occupancy
  Si  Si0  1  0.99034079  0.00000000  0.00000000  1
  Si  Si1  1  0.99034079  0.50000000  0.50000000  1
  Si  Si2  1  0.50965921  0.00000000  0.00000000  1
  Si  Si3  1  0.50965921  0.50000000  0.50000000  1
  Si  Si4  1  0.75000000  0.00000000  0.50000000  1
  Si  Si5  1  0.75000000  0.50000000  0.00000000  1
  Hf  Hf6  1  0.25000000  0.00000000  0.50000000  1
  Hf  Hf7  1  0.25000000  0.50000000  0.00000000  1
  C  C8  1  0.97896733  0.00000000  0.50000000  1
  C  C9  1  0.97896733  0.50000000  0.00000000  1
  C  C10  1  0.25000000  0.00000000  0.00000000  1
  C  C11  1  0.25000000  0.50000000  0.50000000  1
  C  C12  1  0.52103267  0.00000000  0.50000000  1
  C  C13  1  0.52103267  0.50000000  0.00000000  1
  C  C14  1  0.75000000  0.00000000  0.00000000  1
  C  C15  1  0.75000000  0.50000000  0.50000000  1
