# generated using pymatgen
data_HfW3C4
_symmetry_space_group_name_H-M   'P 1'
_cell_length_a   8.89011954
_cell_length_b   4.43554616
_cell_length_c   4.42942172
_cell_angle_alpha   90.00000000
_cell_angle_beta   90.00000000
_cell_angle_gamma   90.00000000
_symmetry_Int_Tables_number   1
_chemical_formula_structural   HfW3C4
_chemical_formula_sum   'Hf2 W6 C8'
_cell_volume   174.66332961
_cell_formula_units_Z   2
loop_
 _symmetry_equiv_pos_site_id
 _symmetry_equiv_pos_as_xyz
  1  'x, y, z'
loop_
 _atom_site_type_symbol
 _atom_site_label
 _atom_site_symmetry_multiplicity
 _atom_site_fract_x
 _atom_site_fract_y
 _atom_site_fract_z
 _atom_site_occupancy
  W  W0  1  0.99499110  0.00000000  0.00000000  1
  W  W1  1  0.25380877  0.00000000  0.50000000  1
  W  W2  1  0.25444481  0.50000000  0.00000000  1
  W  W3  1  0.49555519  0.00000000  0.00000000  1
  W  W4  1  0.49619123  0.50000000  0.50000000  1
  W  W5  1  0.75500890  0.50000000  0.00000000  1
  Hf  Hf6  1  0.00309195  0.50000000  0.50000000  1
  Hf  Hf7  1  0.74690805  0.00000000  0.50000000  1
  C  C8  1  0.00416403  0.00000000  0.50000000  1
  C  C9  1  0.00308021  0.50000000  0.00000000  1
  C  C10  1  0.24786787  0.00000000  0.00000000  1
  C  C11  1  0.25355447  0.50000000  0.50000000  1
  C  C12  1  0.49644553  0.00000000  0.50000000  1
  C  C13  1  0.50213213  0.50000000  0.00000000  1
  C  C14  1  0.74691979  0.00000000  0.00000000  1
  C  C15  1  0.74583597  0.50000000  0.50000000  1
