# generated using pymatgen
data_MnCrNiW
_symmetry_space_group_name_H-M   'P 1'
_cell_length_a   7.56351508
_cell_length_b   7.44352971
_cell_length_c   7.56319414
_cell_angle_alpha   104.11777583
_cell_angle_beta   104.48526928
_cell_angle_gamma   90.14153959
_symmetry_Int_Tables_number   1
_chemical_formula_structural   MnCrNiW
_chemical_formula_sum   'Mn8 Cr8 Ni8 W8'
_cell_volume   398.90002291
_cell_formula_units_Z   8
loop_
 _symmetry_equiv_pos_site_id
 _symmetry_equiv_pos_as_xyz
  1  'x, y, z'
loop_
 _atom_site_type_symbol
 _atom_site_label
 _atom_site_symmetry_multiplicity
 _atom_site_fract_x
 _atom_site_fract_y
 _atom_site_fract_z
 _atom_site_occupancy
  Cr  Cr0  1  0.66365305  0.91115584  0.74280192  1
  Cr  Cr1  1  0.89171048  0.20368660  0.74572525  1
  Cr  Cr2  1  0.69690493  0.46322990  0.74328446  1
  Cr  Cr3  1  0.86156844  0.37370784  0.47669105  1
  Cr  Cr4  1  0.17720638  0.46995274  0.73951661  1
  Cr  Cr5  1  0.31495688  0.58283270  0.25159060  1
  Cr  Cr6  1  0.50649054  0.53506076  0.99695746  1
  Cr  Cr7  1  0.26069586  0.73110184  0.01389376  1
  Mn  Mn8  1  0.92409557  0.66247692  0.72343528  1
  Mn  Mn9  1  0.86609852  0.89889764  0.54254328  1
  Mn  Mn10  1  0.44214999  0.65943809  0.73624432  1
  Mn  Mn11  1  0.38965425  0.86653042  0.50103744  1
  Mn  Mn12  1  0.74286704  0.75302215  0.00399170  1
  Mn  Mn13  1  0.61947411  0.12036047  0.49332387  1
  Mn  Mn14  1  0.81827243  0.03684283  0.27377765  1
  Mn  Mn15  1  0.76516427  0.26108462  0.02389951  1
  Ni  Ni16  1  0.61537394  0.62219458  0.48974514  1
  Ni  Ni17  1  0.56486076  0.82041309  0.26326032  1
  Ni  Ni18  1  0.38062414  0.37285657  0.49628527  1
  Ni  Ni19  1  0.13191698  0.62228055  0.48813485  1
  Ni  Ni20  1  0.07257426  0.81520138  0.26195696  1
  Ni  Ni21  1  0.31205767  0.04909311  0.24239061  1
  Ni  Ni22  1  0.51346329  0.98347501  0.00466789  1
  Ni  Ni23  1  0.99186830  0.51884663  0.99934458  1
  W  W24  1  0.20319051  0.90691523  0.75428585  1
  W  W25  1  0.81801549  0.59658945  0.26397395  1
  W  W26  1  0.47816327  0.20114058  0.76615814  1
  W  W27  1  0.54947674  0.30218971  0.23486191  1
  W  W28  1  0.13667187  0.12024965  0.51477744  1
  W  W29  1  0.07114478  0.30914324  0.24763115  1
  W  W30  1  0.23385118  0.26061896  0.97022241  1
  W  W31  1  0.98578403  0.96941087  0.99358939  1
