# generated using pymatgen
data_MnCrCoNi
_symmetry_space_group_name_H-M   'P 1'
_cell_length_a   7.14589050
_cell_length_b   7.07596967
_cell_length_c   7.50708235
_cell_angle_alpha   103.79502534
_cell_angle_beta   103.89268615
_cell_angle_gamma   90.02562807
_symmetry_Int_Tables_number   1
_chemical_formula_structural   MnCrCoNi
_chemical_formula_sum   'Mn8 Cr8 Co8 Ni8'
_cell_volume   357.18500223
_cell_formula_units_Z   8
loop_
 _symmetry_equiv_pos_site_id
 _symmetry_equiv_pos_as_xyz
  1  'x, y, z'
loop_
 _atom_site_type_symbol
 _atom_site_label
 _atom_site_symmetry_multiplicity
 _atom_site_fract_x
 _atom_site_fract_y
 _atom_site_fract_z
 _atom_site_occupancy
  Co  Co0  1  0.94154129  0.68978402  0.75646300  1
  Co  Co1  1  0.19012413  0.94179301  0.75200836  1
  Co  Co2  1  0.62730419  0.62444251  0.50316744  1
  Co  Co3  1  0.43963111  0.18166178  0.74885267  1
  Co  Co4  1  0.62514815  0.12482906  0.50027730  1
  Co  Co5  1  0.55747108  0.31108192  0.25122908  1
  Co  Co6  1  0.06577034  0.31523713  0.24771600  1
  Co  Co7  1  0.50288663  0.00165273  0.00102001  1
  Cr  Cr8  1  0.67944691  0.93351765  0.74896577  1
  Cr  Cr9  1  0.93434596  0.18884324  0.74319290  1
  Cr  Cr10  1  0.37137602  0.87962684  0.49727849  1
  Cr  Cr11  1  0.81075635  0.06318215  0.25021762  1
  Cr  Cr12  1  0.31771305  0.55624735  0.25888849  1
  Cr  Cr13  1  0.06332397  0.80576091  0.25407499  1
  Cr  Cr14  1  0.24532396  0.75263641  0.00523721  1
  Cr  Cr15  1  0.26468410  0.25113831  0.99873039  1
  Mn  Mn16  1  0.68217093  0.43457863  0.74439858  1
  Mn  Mn17  1  0.43080124  0.69370028  0.74857894  1
  Mn  Mn18  1  0.87832378  0.37666286  0.49844487  1
  Mn  Mn19  1  0.56951949  0.81027820  0.25058034  1
  Mn  Mn20  1  0.37505025  0.37343200  0.49898376  1
  Mn  Mn21  1  0.31293318  0.07235218  0.24915182  1
  Mn  Mn22  1  0.99776075  0.48856094  0.99680091  1
  Mn  Mn23  1  0.99136846  0.00781299  0.99412467  1
  Ni  Ni24  1  0.87596229  0.87384474  0.50414836  1
  Ni  Ni25  1  0.81331740  0.56145100  0.24799300  1
  Ni  Ni26  1  0.75176513  0.74718683  0.99629237  1
  Ni  Ni27  1  0.19057254  0.43507475  0.75183251  1
  Ni  Ni28  1  0.12142208  0.62507756  0.50203675  1
  Ni  Ni29  1  0.74585064  0.25060074  0.00007351  1
  Ni  Ni30  1  0.50100585  0.50222386  0.00042487  1
  Ni  Ni31  1  0.12532877  0.12572741  0.49881495  1
