# generated using pymatgen
data_MnCoNiW
_symmetry_space_group_name_H-M   'P 1'
_cell_length_a   7.17248056
_cell_length_b   7.41132997
_cell_length_c   7.88931472
_cell_angle_alpha   103.69358507
_cell_angle_beta   103.34781177
_cell_angle_gamma   90.15330445
_symmetry_Int_Tables_number   1
_chemical_formula_structural   MnCoNiW
_chemical_formula_sum   'Mn8 Co8 Ni8 W8'
_cell_volume   395.72020585
_cell_formula_units_Z   8
loop_
 _symmetry_equiv_pos_site_id
 _symmetry_equiv_pos_as_xyz
  1  'x, y, z'
loop_
 _atom_site_type_symbol
 _atom_site_label
 _atom_site_symmetry_multiplicity
 _atom_site_fract_x
 _atom_site_fract_y
 _atom_site_fract_z
 _atom_site_occupancy
  Co  Co0  1  0.93403686  0.18938724  0.75415802  1
  Co  Co1  1  0.68799829  0.43536033  0.75002780  1
  Co  Co2  1  0.57095725  0.80787333  0.24993221  1
  Co  Co3  1  0.75462370  0.74875791  0.00258286  1
  Co  Co4  1  0.43827142  0.18385561  0.74817037  1
  Co  Co5  1  0.38195736  0.37686737  0.51162220  1
  Co  Co6  1  0.55764567  0.32133478  0.25088944  1
  Co  Co7  1  0.24593043  0.23816520  0.99364222  1
  Mn  Mn8  1  0.67850561  0.93979156  0.75588873  1
  Mn  Mn9  1  0.19396641  0.95060983  0.74537126  1
  Mn  Mn10  1  0.86478708  0.35283744  0.51036845  1
  Mn  Mn11  1  0.61234300  0.62095595  0.50215880  1
  Mn  Mn12  1  0.78908181  0.07569390  0.24147463  1
  Mn  Mn13  1  0.75328113  0.24906332  0.98962173  1
  Mn  Mn14  1  0.50568163  0.01286065  0.99921297  1
  Mn  Mn15  1  0.99190353  0.49316581  0.98013853  1
  Ni  Ni16  1  0.92162486  0.68152438  0.74487862  1
  Ni  Ni17  1  0.45405333  0.68749397  0.75523472  1
  Ni  Ni18  1  0.37814086  0.88055388  0.50261301  1
  Ni  Ni19  1  0.18421711  0.42601329  0.75357649  1
  Ni  Ni20  1  0.61807947  0.12836018  0.50827904  1
  Ni  Ni21  1  0.13795623  0.13487857  0.51228523  1
  Ni  Ni22  1  0.33747675  0.05995118  0.25464190  1
  Ni  Ni23  1  0.98737864  0.99485649  0.97627619  1
  W  W24  1  0.86734353  0.89898222  0.51101104  1
  W  W25  1  0.82668434  0.55382939  0.25900951  1
  W  W26  1  0.14131963  0.62296611  0.53075787  1
  W  W27  1  0.30283343  0.56613948  0.24909830  1
  W  W28  1  0.05699109  0.84804941  0.24852491  1
  W  W29  1  0.50506127  0.48456917  0.98806454  1
  W  W30  1  0.24509681  0.76062684  0.97718640  1
  W  W31  1  0.07477146  0.27462520  0.24330203  1
