# generated using pymatgen
data_HfNb3C4
_symmetry_space_group_name_H-M   'P 1'
_cell_length_a   9.04888502
_cell_length_b   4.51968965
_cell_length_c   4.51714883
_cell_angle_alpha   90.00000000
_cell_angle_beta   90.00000000
_cell_angle_gamma   90.00000000
_symmetry_Int_Tables_number   1
_chemical_formula_structural   HfNb3C4
_chemical_formula_sum   'Hf2 Nb6 C8'
_cell_volume   184.74303932
_cell_formula_units_Z   2
loop_
 _symmetry_equiv_pos_site_id
 _symmetry_equiv_pos_as_xyz
  1  'x, y, z'
loop_
 _atom_site_type_symbol
 _atom_site_label
 _atom_site_symmetry_multiplicity
 _atom_site_fract_x
 _atom_site_fract_y
 _atom_site_fract_z
 _atom_site_occupancy
  Nb  Nb0  1  0.00315049  0.00000000  0.00000000  1
  Nb  Nb1  1  0.25240088  0.00000000  0.50000000  1
  Nb  Nb2  1  0.25271446  0.50000000  0.00000000  1
  Nb  Nb3  1  0.49728554  0.00000000  0.00000000  1
  Nb  Nb4  1  0.49759912  0.50000000  0.50000000  1
  Nb  Nb5  1  0.74684951  0.50000000  0.00000000  1
  Hf  Hf6  1  0.00157484  0.50000000  0.50000000  1
  Hf  Hf7  1  0.74842516  0.00000000  0.50000000  1
  C  C8  1  0.00187049  0.00000000  0.50000000  1
  C  C9  1  0.00119828  0.50000000  0.00000000  1
  C  C10  1  0.25095674  0.00000000  0.00000000  1
  C  C11  1  0.25128985  0.50000000  0.50000000  1
  C  C12  1  0.49871015  0.00000000  0.50000000  1
  C  C13  1  0.49904326  0.50000000  0.00000000  1
  C  C14  1  0.74880172  0.00000000  0.00000000  1
  C  C15  1  0.74812951  0.50000000  0.50000000  1
