# generated using pymatgen
data_HfV3C4
_symmetry_space_group_name_H-M   'P 1'
_cell_length_a   8.56094094
_cell_length_b   4.32441231
_cell_length_c   4.32441231
_cell_angle_alpha   90.00000000
_cell_angle_beta   90.00000000
_cell_angle_gamma   90.00000000
_symmetry_Int_Tables_number   1
_chemical_formula_structural   HfV3C4
_chemical_formula_sum   'Hf2 V6 C8'
_cell_volume   160.09423413
_cell_formula_units_Z   2
loop_
 _symmetry_equiv_pos_site_id
 _symmetry_equiv_pos_as_xyz
  1  'x, y, z'
loop_
 _atom_site_type_symbol
 _atom_site_label
 _atom_site_symmetry_multiplicity
 _atom_site_fract_x
 _atom_site_fract_y
 _atom_site_fract_z
 _atom_site_occupancy
  Hf  Hf0  1  0.00000000  0.00000000  0.00000000  1
  Hf  Hf1  1  0.00000000  0.50000000  0.50000000  1
  V  V2  1  0.26420742  0.00000000  0.50000000  1
  V  V3  1  0.26420742  0.50000000  0.00000000  1
  V  V4  1  0.50000000  0.00000000  0.00000000  1
  V  V5  1  0.50000000  0.50000000  0.50000000  1
  V  V6  1  0.73579258  0.00000000  0.50000000  1
  V  V7  1  0.73579258  0.50000000  0.00000000  1
  C  C8  1  0.00000000  0.00000000  0.50000000  1
  C  C9  1  0.00000000  0.50000000  0.00000000  1
  C  C10  1  0.26268173  0.00000000  0.00000000  1
  C  C11  1  0.26268173  0.50000000  0.50000000  1
  C  C12  1  0.50000000  0.00000000  0.50000000  1
  C  C13  1  0.50000000  0.50000000  0.00000000  1
  C  C14  1  0.73731827  0.00000000  0.00000000  1
  C  C15  1  0.73731827  0.50000000  0.50000000  1
