# generated using pymatgen
data_HfO2
_symmetry_space_group_name_H-M   'P 1'
_cell_length_a   5.17224113
_cell_length_b   5.19237986
_cell_length_c   5.32474272
_cell_angle_alpha   90.00000000
_cell_angle_beta   99.39595670
_cell_angle_gamma   90.00000000
_symmetry_Int_Tables_number   1
_chemical_formula_structural   HfO2
_chemical_formula_sum   'Hf4 O8'
_cell_volume   141.08400435
_cell_formula_units_Z   4
loop_
 _symmetry_equiv_pos_site_id
 _symmetry_equiv_pos_as_xyz
  1  'x, y, z'
loop_
 _atom_site_type_symbol
 _atom_site_label
 _atom_site_symmetry_multiplicity
 _atom_site_fract_x
 _atom_site_fract_y
 _atom_site_fract_z
 _atom_site_occupancy
  Hf  Hf0  1  0.72526722  0.53799690  0.29442549  1
  Hf  Hf1  1  0.27473278  0.03799690  0.20557451  1
  Hf  Hf2  1  0.27473278  0.46200310  0.70557451  1
  Hf  Hf3  1  0.72526722  0.96200310  0.79442549  1
  O  O4  1  0.55049290  0.25688866  0.01917200  1
  O  O5  1  0.44950710  0.75688866  0.48082800  1
  O  O6  1  0.44950710  0.74311134  0.98082800  1
  O  O7  1  0.55049290  0.24311134  0.51917200  1
  O  O8  1  0.93107028  0.67222625  0.64981447  1
  O  O9  1  0.06892972  0.17222625  0.85018553  1
  O  O10  1  0.06892972  0.32777375  0.35018553  1
  O  O11  1  0.93107028  0.82777375  0.14981447  1
