# generated using pymatgen
data_TaTi7N8
_symmetry_space_group_name_H-M   'P 1'
_cell_length_a   6.04456897
_cell_length_b   6.04456897
_cell_length_c   8.54233676
_cell_angle_alpha   89.97252760
_cell_angle_beta   90.02747245
_cell_angle_gamma   90.02744649
_symmetry_Int_Tables_number   1
_chemical_formula_structural   TaTi7N8
_chemical_formula_sum   'Ta2 Ti14 N16'
_cell_volume   312.10966237
_cell_formula_units_Z   2
loop_
 _symmetry_equiv_pos_site_id
 _symmetry_equiv_pos_as_xyz
  1  'x, y, z'
loop_
 _atom_site_type_symbol
 _atom_site_label
 _atom_site_symmetry_multiplicity
 _atom_site_fract_x
 _atom_site_fract_y
 _atom_site_fract_z
 _atom_site_occupancy
  Ta  Ta0  1  0.50074723  0.49925277  0.50074086  1
  Ta  Ta1  1  0.24925292  0.75074708  0.24925941  1
  N  N2  1  0.75257758  0.75275928  0.50007607  1
  N  N3  1  0.75206684  0.24793316  0.50075182  1
  N  N4  1  0.24628805  0.75371195  0.50406835  1
  N  N5  1  0.24724072  0.24742242  0.50007607  1
  N  N6  1  0.50371196  0.49628804  0.24593191  1
  N  N7  1  0.50275929  0.00257762  0.24992391  1
  N  N8  1  0.75044573  0.75032064  0.99988844  1
  N  N9  1  0.75045248  0.24954752  0.99900092  1
  N  N10  1  0.99742238  0.49724071  0.24992391  1
  N  N11  1  0.99793310  0.00206690  0.24924836  1
  N  N12  1  0.24982829  0.75017171  0.99768847  1
  N  N13  1  0.24967936  0.24955427  0.99988844  1
  N  N14  1  0.50017170  0.49982830  0.75231130  1
  N  N15  1  0.50032065  0.00044569  0.75011155  1
  N  N16  1  0.99955431  0.49967935  0.75011155  1
  N  N17  1  0.99954756  0.00045244  0.75099891  1
  Ti  Ti18  1  0.75159747  0.24840253  0.75206356  1
  Ti  Ti19  1  0.75099214  0.75111681  0.75173442  1
  Ti  Ti20  1  0.24888319  0.24900786  0.75173442  1
  Ti  Ti21  1  0.24832138  0.75167862  0.75179254  1
  Ti  Ti22  1  0.50077025  0.00093031  0.50178677  1
  Ti  Ti23  1  0.75172766  0.24827234  0.24779089  1
  Ti  Ti24  1  0.75093029  0.75077006  0.24821324  1
  Ti  Ti25  1  0.99827231  0.00172769  0.50220911  1
  Ti  Ti26  1  0.99906969  0.49922975  0.50178677  1
  Ti  Ti27  1  0.24922994  0.24906971  0.24821324  1
  Ti  Ti28  1  0.50111687  0.00099223  0.99826550  1
  Ti  Ti29  1  0.50167868  0.49832132  0.99820743  1
  Ti  Ti30  1  0.99840222  0.00159778  0.99793635  1
  Ti  Ti31  1  0.99900777  0.49888313  0.99826550  1
