# generated using pymatgen
data_CrFe38
_symmetry_space_group_name_H-M   'P 1'
_cell_length_a   8.48573267
_cell_length_b   8.50343153
_cell_length_c   6.32484699
_cell_angle_alpha   89.93362651
_cell_angle_beta   90.11168778
_cell_angle_gamma   96.27566846
_symmetry_Int_Tables_number   1
_chemical_formula_structural   CrFe38
_chemical_formula_sum   'Cr1 Fe38'
_cell_volume   453.65135598
_cell_formula_units_Z   1
loop_
 _symmetry_equiv_pos_site_id
 _symmetry_equiv_pos_as_xyz
  1  'x, y, z'
loop_
 _atom_site_type_symbol
 _atom_site_label
 _atom_site_symmetry_multiplicity
 _atom_site_fract_x
 _atom_site_fract_y
 _atom_site_fract_z
 _atom_site_occupancy
  Fe  Fe0  1  0.92544520  0.82511330  0.69976350  1
  Fe  Fe1  1  0.95111668  0.54863351  0.80045202  1
  Fe  Fe2  1  0.98408944  0.27390440  0.90270932  1
  Fe  Fe3  1  0.47365398  0.77512849  0.89991434  1
  Fe  Fe4  1  0.64954878  0.85081504  0.60080226  1
  Fe  Fe5  1  0.82440476  0.92586613  0.30102572  1
  Fe  Fe6  1  0.67497409  0.57492612  0.70063738  1
  Fe  Fe7  1  0.85004452  0.64977327  0.39944081  1
  Fe  Fe8  1  0.69957550  0.30014827  0.79982657  1
  Fe  Fe9  1  0.87480757  0.37430542  0.49964265  1
  Fe  Fe10  1  0.72549057  0.02515091  0.89937721  1
  Fe  Fe11  1  0.90106800  0.10105249  0.60033680  1
  Fe  Fe12  1  0.20030365  0.80173703  0.80148412  1
  Fe  Fe13  1  0.37408306  0.87488245  0.49893162  1
  Fe  Fe14  1  0.54875867  0.95036055  0.19972892  1
  Fe  Fe15  1  0.22564248  0.51544630  0.90204212  1
  Fe  Fe16  1  0.57401078  0.67412755  0.30078975  1
  Fe  Fe17  1  0.74946463  0.75015031  0.00106660  1
  Fe  Fe18  1  0.41959867  0.32340779  0.70640878  1
  Fe  Fe19  1  0.59837953  0.39914458  0.40100171  1
  Fe  Fe20  1  0.77569418  0.47513290  0.09987969  1
  Fe  Fe21  1  0.62570738  0.12508735  0.50115821  1
  Fe  Fe22  1  0.79884830  0.20037196  0.19784590  1
  Fe  Fe23  1  0.10114686  0.90202898  0.39899272  1
  Fe  Fe24  1  0.27326147  0.98356669  0.09714553  1
  Fe  Fe25  1  0.12569908  0.62542278  0.50075243  1
  Fe  Fe26  1  0.29978264  0.69834413  0.19810566  1
  Fe  Fe27  1  0.15048874  0.35046966  0.59285321  1
  Fe  Fe28  1  0.32230123  0.42054290  0.29110492  1
  Fe  Fe29  1  0.50161179  0.49921561  0.00055939  1
  Fe  Fe30  1  0.17648611  0.08068451  0.70941124  1
  Fe  Fe31  1  0.35208393  0.15022021  0.40410273  1
  Fe  Fe32  1  0.02580104  0.72496576  0.09987589  1
  Fe  Fe33  1  0.04822911  0.45150796  0.20111302  1
  Fe  Fe34  1  0.08095015  0.17705308  0.29072565  1
  Fe  Fe35  1  0.99681982  0.99762333  0.00098217  1
  Fe  Fe36  1  0.39929219  0.59726426  0.60104282  1
  Fe  Fe37  1  0.45156359  0.05078681  0.80023272  1
  Cr  Cr38  1  0.51977181  0.22563716  0.09873390  1
