# generated using pymatgen
data_Fe9Cu
_symmetry_space_group_name_H-M   'P 1'
_cell_length_a   8.55618740
_cell_length_b   8.56622080
_cell_length_c   6.36927581
_cell_angle_alpha   89.86008586
_cell_angle_beta   90.36712743
_cell_angle_gamma   96.73278628
_symmetry_Int_Tables_number   1
_chemical_formula_structural   Fe9Cu
_chemical_formula_sum   'Fe36 Cu4'
_cell_volume   463.60133076
_cell_formula_units_Z   4
loop_
 _symmetry_equiv_pos_site_id
 _symmetry_equiv_pos_as_xyz
  1  'x, y, z'
loop_
 _atom_site_type_symbol
 _atom_site_label
 _atom_site_symmetry_multiplicity
 _atom_site_fract_x
 _atom_site_fract_y
 _atom_site_fract_z
 _atom_site_occupancy
  Fe  Fe0  1  0.92504610  0.82521211  0.70099750  1
  Fe  Fe1  1  0.95093403  0.54995219  0.80009881  1
  Fe  Fe2  1  0.97218855  0.27553436  0.89921068  1
  Fe  Fe3  1  0.47745224  0.77342209  0.90685861  1
  Fe  Fe4  1  0.64800141  0.85026204  0.60081653  1
  Fe  Fe5  1  0.82465987  0.92450935  0.30047345  1
  Fe  Fe6  1  0.67646992  0.57512325  0.70218124  1
  Fe  Fe7  1  0.84848380  0.64936043  0.39856249  1
  Fe  Fe8  1  0.69912393  0.29884785  0.79392935  1
  Fe  Fe9  1  0.87588890  0.37538100  0.49874814  1
  Fe  Fe10  1  0.72797025  0.02441828  0.90170466  1
  Fe  Fe11  1  0.89725278  0.09982142  0.60161092  1
  Fe  Fe12  1  0.20245116  0.80187959  0.79989005  1
  Fe  Fe13  1  0.37353381  0.87826242  0.49400481  1
  Fe  Fe14  1  0.55121463  0.94710917  0.20138910  1
  Fe  Fe15  1  0.22293630  0.52908347  0.90297836  1
  Fe  Fe16  1  0.57644484  0.67359842  0.29807225  1
  Fe  Fe17  1  0.75124039  0.75001252  0.99930606  1
  Fe  Fe18  1  0.42617398  0.32464342  0.69676599  1
  Fe  Fe19  1  0.60072623  0.40161123  0.40184699  1
  Fe  Fe20  1  0.77416158  0.47379352  0.09869956  1
  Fe  Fe21  1  0.62682176  0.12594835  0.49416423  1
  Fe  Fe22  1  0.80324645  0.19973572  0.19927770  1
  Fe  Fe23  1  0.09891325  0.89883345  0.39934262  1
  Fe  Fe24  1  0.27631469  0.97342320  0.10352409  1
  Fe  Fe25  1  0.12276739  0.62517246  0.50004979  1
  Fe  Fe26  1  0.29990131  0.69782134  0.20129776  1
  Fe  Fe27  1  0.15140231  0.35160261  0.60202121  1
  Fe  Fe28  1  0.32510602  0.42446587  0.30122942  1
  Fe  Fe29  1  0.49740738  0.50154121  0.99704300  1
  Fe  Fe30  1  0.17119250  0.07339706  0.69612595  1
  Fe  Fe31  1  0.34734713  0.15123745  0.40307108  1
  Fe  Fe32  1  0.02602265  0.72470981  0.09903062  1
  Fe  Fe33  1  0.04939021  0.44872194  0.20060839  1
  Fe  Fe34  1  0.07547801  0.17457163  0.30609424  1
  Fe  Fe35  1  0.00225202  0.00073042  0.00095067  1
  Cu  Cu36  1  0.39979584  0.60314136  0.60029193  1
  Cu  Cu37  1  0.45127693  0.04806102  0.79848250  1
  Cu  Cu38  1  0.52565148  0.22516772  0.10032843  1
  Cu  Cu39  1  0.24735794  0.24987922  0.99892082  1
