# generated using pymatgen
data_Fe19Co
_symmetry_space_group_name_H-M   'P 1'
_cell_length_a   8.52317838
_cell_length_b   8.52490640
_cell_length_c   6.32830900
_cell_angle_alpha   89.80427035
_cell_angle_beta   90.20328730
_cell_angle_gamma   96.42826119
_symmetry_Int_Tables_number   1
_chemical_formula_structural   Fe19Co
_chemical_formula_sum   'Fe38 Co2'
_cell_volume   456.91459123
_cell_formula_units_Z   2
loop_
 _symmetry_equiv_pos_site_id
 _symmetry_equiv_pos_as_xyz
  1  'x, y, z'
loop_
 _atom_site_type_symbol
 _atom_site_label
 _atom_site_symmetry_multiplicity
 _atom_site_fract_x
 _atom_site_fract_y
 _atom_site_fract_z
 _atom_site_occupancy
  Fe  Fe0  1  0.92510123  0.82508562  0.70026988  1
  Fe  Fe1  1  0.94983701  0.54994328  0.79990089  1
  Fe  Fe2  1  0.97550587  0.27497154  0.90031785  1
  Fe  Fe3  1  0.47466950  0.77551849  0.90019573  1
  Fe  Fe4  1  0.64996213  0.85032066  0.60017604  1
  Fe  Fe5  1  0.82516305  0.92505394  0.30007610  1
  Fe  Fe6  1  0.67498295  0.57508414  0.70056252  1
  Fe  Fe7  1  0.84989683  0.64991562  0.39974532  1
  Fe  Fe8  1  0.69913977  0.29998374  0.80031609  1
  Fe  Fe9  1  0.87553129  0.37501309  0.49961865  1
  Fe  Fe10  1  0.72523368  0.02486216  0.89990776  1
  Fe  Fe11  1  0.89946803  0.09998277  0.60036385  1
  Fe  Fe12  1  0.20003291  0.80062755  0.80002626  1
  Fe  Fe13  1  0.37471771  0.87519705  0.49943792  1
  Fe  Fe14  1  0.55006639  0.95054562  0.20000055  1
  Fe  Fe15  1  0.22493002  0.52445534  0.90001845  1
  Fe  Fe16  1  0.57496668  0.67436678  0.29995413  1
  Fe  Fe17  1  0.74977898  0.74997814  0.00020724  1
  Fe  Fe18  1  0.42415841  0.32499858  0.69993161  1
  Fe  Fe19  1  0.60015240  0.39966841  0.39930510  1
  Fe  Fe20  1  0.77544847  0.47527229  0.09973823  1
  Fe  Fe21  1  0.62473808  0.12494305  0.50080577  1
  Fe  Fe22  1  0.79948978  0.20003330  0.19969769  1
  Fe  Fe23  1  0.10001337  0.89991891  0.39945488  1
  Fe  Fe24  1  0.27455771  0.97562783  0.09963788  1
  Fe  Fe25  1  0.12504011  0.62467978  0.49981114  1
  Fe  Fe26  1  0.30033049  0.69948384  0.19981738  1
  Fe  Fe27  1  0.15026455  0.35005725  0.59919593  1
  Fe  Fe28  1  0.32451840  0.42456290  0.29953698  1
  Fe  Fe29  1  0.50044851  0.49936350  0.00035858  1
  Fe  Fe30  1  0.17484438  0.07533463  0.70071409  1
  Fe  Fe31  1  0.35083733  0.15000311  0.40008541  1
  Fe  Fe32  1  0.02522343  0.72502044  0.09978481  1
  Fe  Fe33  1  0.04976348  0.45014109  0.20011337  1
  Fe  Fe34  1  0.07585973  0.17501513  0.29966662  1
  Fe  Fe35  1  0.99955856  0.99973322  0.00025722  1
  Fe  Fe36  1  0.40028407  0.59980100  0.60054389  1
  Fe  Fe37  1  0.45048314  0.05043601  0.80044623  1
  Co  Co38  1  0.52508864  0.22497186  0.10000649  1
  Co  Co39  1  0.24991294  0.25002834  0.99999547  1
