# generated using pymatgen
data_Fe9Ni
_symmetry_space_group_name_H-M   'P 1'
_cell_length_a   8.54924430
_cell_length_b   8.54189422
_cell_length_c   6.37144220
_cell_angle_alpha   89.83392993
_cell_angle_beta   90.18196900
_cell_angle_gamma   96.73676704
_symmetry_Int_Tables_number   1
_chemical_formula_structural   Fe9Ni
_chemical_formula_sum   'Fe36 Ni4'
_cell_volume   462.06930220
_cell_formula_units_Z   4
loop_
 _symmetry_equiv_pos_site_id
 _symmetry_equiv_pos_as_xyz
  1  'x, y, z'
loop_
 _atom_site_type_symbol
 _atom_site_label
 _atom_site_symmetry_multiplicity
 _atom_site_fract_x
 _atom_site_fract_y
 _atom_site_fract_z
 _atom_site_occupancy
  Fe  Fe0  1  0.92480330  0.82515830  0.70035830  1
  Fe  Fe1  1  0.95069136  0.54961607  0.80033447  1
  Fe  Fe2  1  0.97379582  0.27485920  0.89940458  1
  Fe  Fe3  1  0.47539322  0.77451846  0.90317382  1
  Fe  Fe4  1  0.64901810  0.85092156  0.60064383  1
  Fe  Fe5  1  0.82392889  0.92512721  0.30025085  1
  Fe  Fe6  1  0.67548244  0.57521644  0.70183514  1
  Fe  Fe7  1  0.84908426  0.64973620  0.39932509  1
  Fe  Fe8  1  0.69891204  0.29980198  0.79839404  1
  Fe  Fe9  1  0.87558667  0.37522622  0.49928102  1
  Fe  Fe10  1  0.72508130  0.02534984  0.90010917  1
  Fe  Fe11  1  0.89829717  0.10015910  0.60117710  1
  Fe  Fe12  1  0.20062921  0.80077300  0.79993785  1
  Fe  Fe13  1  0.37435382  0.87691700  0.49682934  1
  Fe  Fe14  1  0.55008511  0.94980034  0.20045478  1
  Fe  Fe15  1  0.22423285  0.52635834  0.90053488  1
  Fe  Fe16  1  0.57528368  0.67449173  0.29872456  1
  Fe  Fe17  1  0.75031076  0.75027509  0.99966061  1
  Fe  Fe18  1  0.42554868  0.32330074  0.70072012  1
  Fe  Fe19  1  0.60044940  0.40087606  0.40167892  1
  Fe  Fe20  1  0.77414423  0.47470035  0.09951348  1
  Fe  Fe21  1  0.62501348  0.12572450  0.49771207  1
  Fe  Fe22  1  0.80241360  0.20007299  0.19979930  1
  Fe  Fe23  1  0.09990345  0.89948526  0.39952835  1
  Fe  Fe24  1  0.27627129  0.97578358  0.10005616  1
  Fe  Fe25  1  0.12414770  0.62461028  0.49944827  1
  Fe  Fe26  1  0.30022035  0.69875287  0.19922035  1
  Fe  Fe27  1  0.15139797  0.34974707  0.59979095  1
  Fe  Fe28  1  0.32526585  0.42382160  0.29947271  1
  Fe  Fe29  1  0.49936405  0.49979816  0.00021655  1
  Fe  Fe30  1  0.17360818  0.07423548  0.69887686  1
  Fe  Fe31  1  0.34931683  0.15110715  0.40069946  1
  Fe  Fe32  1  0.02631534  0.72518587  0.09916117  1
  Fe  Fe33  1  0.05007278  0.44945014  0.20064983  1
  Fe  Fe34  1  0.07562949  0.17410987  0.30271312  1
  Fe  Fe35  1  0.00089688  0.99990796  0.99994966  1
  Ni  Ni36  1  0.39984799  0.60055222  0.60043794  1
  Ni  Ni37  1  0.44850019  0.04850489  0.79772151  1
  Ni  Ni38  1  0.52825518  0.22599893  0.10372039  1
  Ni  Ni39  1  0.24844711  0.24996793  0.99848340  1
