# generated using pymatgen
data_CrFe19
_symmetry_space_group_name_H-M   'P 1'
_cell_length_a   8.52475857
_cell_length_b   8.51330535
_cell_length_c   6.34856346
_cell_angle_alpha   89.97415631
_cell_angle_beta   89.98862336
_cell_angle_gamma   96.39353199
_symmetry_Int_Tables_number   1
_chemical_formula_structural   CrFe19
_chemical_formula_sum   'Cr2 Fe38'
_cell_volume   457.87420316
_cell_formula_units_Z   2
loop_
 _symmetry_equiv_pos_site_id
 _symmetry_equiv_pos_as_xyz
  1  'x, y, z'
loop_
 _atom_site_type_symbol
 _atom_site_label
 _atom_site_symmetry_multiplicity
 _atom_site_fract_x
 _atom_site_fract_y
 _atom_site_fract_z
 _atom_site_occupancy
  Fe  Fe0  1  0.92494290  0.82542517  0.70020489  1
  Fe  Fe1  1  0.95007377  0.54994198  0.79989925  1
  Fe  Fe2  1  0.97456541  0.27507461  0.89958707  1
  Fe  Fe3  1  0.47481324  0.77560385  0.90031871  1
  Fe  Fe4  1  0.64966385  0.85085051  0.60047145  1
  Fe  Fe5  1  0.82491679  0.92506826  0.30013989  1
  Fe  Fe6  1  0.67444277  0.57516942  0.70110033  1
  Fe  Fe7  1  0.85007119  0.64956833  0.39976903  1
  Fe  Fe8  1  0.69950721  0.29999173  0.79967756  1
  Fe  Fe9  1  0.87563055  0.37489348  0.49932731  1
  Fe  Fe10  1  0.72497777  0.02480526  0.90044267  1
  Fe  Fe11  1  0.89935318  0.10011199  0.60068215  1
  Fe  Fe12  1  0.20021953  0.80092055  0.80013653  1
  Fe  Fe13  1  0.37501128  0.87579136  0.49966896  1
  Fe  Fe14  1  0.54974150  0.95033423  0.20019883  1
  Fe  Fe15  1  0.22526937  0.52466276  0.89977488  1
  Fe  Fe16  1  0.57477065  0.67409180  0.29991339  1
  Fe  Fe17  1  0.74970929  0.75002726  0.00067308  1
  Fe  Fe18  1  0.42427542  0.32441378  0.70104946  1
  Fe  Fe19  1  0.60013148  0.39933382  0.40056693  1
  Fe  Fe20  1  0.77540210  0.47526504  0.09948709  1
  Fe  Fe21  1  0.62451174  0.12474315  0.50162063  1
  Fe  Fe22  1  0.80043963  0.19991502  0.20038114  1
  Fe  Fe23  1  0.10056752  0.89981802  0.39888316  1
  Fe  Fe24  1  0.27545032  0.97678609  0.09947641  1
  Fe  Fe25  1  0.12531993  0.62415571  0.49954450  1
  Fe  Fe26  1  0.30018972  0.69939817  0.19966277  1
  Fe  Fe27  1  0.15047333  0.35025947  0.59838254  1
  Fe  Fe28  1  0.32529634  0.42344259  0.29900606  1
  Fe  Fe29  1  0.49954359  0.49821478  0.00052747  1
  Fe  Fe30  1  0.17487664  0.07566506  0.69941741  1
  Fe  Fe31  1  0.35073118  0.15057751  0.39892700  1
  Fe  Fe32  1  0.02528615  0.72497783  0.09931053  1
  Fe  Fe33  1  0.05003789  0.45019191  0.19953416  1
  Fe  Fe34  1  0.07548581  0.17501840  0.30037005  1
  Fe  Fe35  1  0.99959358  0.99973954  0.00050641  1
  Fe  Fe36  1  0.39998637  0.59921198  0.60033894  1
  Fe  Fe37  1  0.44970646  0.05154762  0.80102598  1
  Cr  Cr38  1  0.53138770  0.22424839  0.10252237  1
  Cr  Cr39  1  0.24362689  0.25074352  0.99747303  1
