# generated using pymatgen
data_TiFe19
_symmetry_space_group_name_H-M   'P 1'
_cell_length_a   8.56151924
_cell_length_b   8.54770845
_cell_length_c   6.35624440
_cell_angle_alpha   89.89696490
_cell_angle_beta   90.07739890
_cell_angle_gamma   96.29734715
_symmetry_Int_Tables_number   1
_chemical_formula_structural   TiFe19
_chemical_formula_sum   'Ti2 Fe38'
_cell_volume   462.35086543
_cell_formula_units_Z   2
loop_
 _symmetry_equiv_pos_site_id
 _symmetry_equiv_pos_as_xyz
  1  'x, y, z'
loop_
 _atom_site_type_symbol
 _atom_site_label
 _atom_site_symmetry_multiplicity
 _atom_site_fract_x
 _atom_site_fract_y
 _atom_site_fract_z
 _atom_site_occupancy
  Fe  Fe0  1  0.92441978  0.82467542  0.70010885  1
  Fe  Fe1  1  0.95016444  0.55100239  0.79922001  1
  Fe  Fe2  1  0.96879730  0.27585820  0.89716291  1
  Fe  Fe3  1  0.47509487  0.77608865  0.90027351  1
  Fe  Fe4  1  0.64989451  0.85009927  0.60063149  1
  Fe  Fe5  1  0.82482125  0.92400888  0.30085974  1
  Fe  Fe6  1  0.67559490  0.57692140  0.70145287  1
  Fe  Fe7  1  0.85056821  0.65030853  0.39998855  1
  Fe  Fe8  1  0.70168829  0.30179456  0.79377526  1
  Fe  Fe9  1  0.87640679  0.37602159  0.49881714  1
  Fe  Fe10  1  0.72517794  0.02371489  0.90038978  1
  Fe  Fe11  1  0.89860227  0.09899153  0.60121706  1
  Fe  Fe12  1  0.19960280  0.80107470  0.79923451  1
  Fe  Fe13  1  0.37462702  0.87420436  0.49920991  1
  Fe  Fe14  1  0.55093570  0.94491397  0.20232536  1
  Fe  Fe15  1  0.22405039  0.53011037  0.89772906  1
  Fe  Fe16  1  0.57537350  0.67392013  0.30084670  1
  Fe  Fe17  1  0.75029888  0.75028517  0.00115728  1
  Fe  Fe18  1  0.42653785  0.32597398  0.69676712  1
  Fe  Fe19  1  0.60303058  0.40314299  0.40461727  1
  Fe  Fe20  1  0.77624808  0.47649276  0.09917278  1
  Fe  Fe21  1  0.62534426  0.12407298  0.50164572  1
  Fe  Fe22  1  0.80619692  0.19914925  0.20291380  1
  Fe  Fe23  1  0.09939645  0.89808177  0.39860629  1
  Fe  Fe24  1  0.27586232  0.97185327  0.10150459  1
  Fe  Fe25  1  0.12508550  0.62489845  0.49944230  1
  Fe  Fe26  1  0.29988630  0.69890506  0.19982247  1
  Fe  Fe27  1  0.14964205  0.35094306  0.59829726  1
  Fe  Fe28  1  0.32660608  0.42649221  0.30330663  1
  Fe  Fe29  1  0.49912280  0.50316366  0.99851648  1
  Fe  Fe30  1  0.17193797  0.07180592  0.69528884  1
  Fe  Fe31  1  0.34852293  0.14906321  0.40307677  1
  Fe  Fe32  1  0.02469640  0.72471638  0.09892986  1
  Fe  Fe33  1  0.04985714  0.45126393  0.19963862  1
  Fe  Fe34  1  0.07337520  0.17325213  0.30614597  1
  Fe  Fe35  1  0.99875276  0.99851046  0.00089849  1
  Fe  Fe36  1  0.40034654  0.60078813  0.60082570  1
  Fe  Fe37  1  0.44837243  0.04844541  0.79657399  1
  Ti  Ti38  1  0.53564985  0.22425941  0.10374963  1
  Ti  Ti39  1  0.23941073  0.25073155  0.99585946  1
