# generated using pymatgen
data_ScFe19
_symmetry_space_group_name_H-M   'P 1'
_cell_length_a   8.58972758
_cell_length_b   8.58608749
_cell_length_c   6.40428943
_cell_angle_alpha   90.11609059
_cell_angle_beta   89.89143802
_cell_angle_gamma   96.29514784
_symmetry_Int_Tables_number   1
_chemical_formula_structural   ScFe19
_chemical_formula_sum   'Sc2 Fe38'
_cell_volume   469.48046735
_cell_formula_units_Z   2
loop_
 _symmetry_equiv_pos_site_id
 _symmetry_equiv_pos_as_xyz
  1  'x, y, z'
loop_
 _atom_site_type_symbol
 _atom_site_label
 _atom_site_symmetry_multiplicity
 _atom_site_fract_x
 _atom_site_fract_y
 _atom_site_fract_z
 _atom_site_occupancy
  Fe  Fe0  1  0.92383980  0.82400455  0.70054692  1
  Fe  Fe1  1  0.95024490  0.55199296  0.79909211  1
  Fe  Fe2  1  0.96176770  0.27666149  0.89385822  1
  Fe  Fe3  1  0.47561616  0.77718338  0.89965904  1
  Fe  Fe4  1  0.65036489  0.84964782  0.60089861  1
  Fe  Fe5  1  0.82474345  0.92301744  0.30091193  1
  Fe  Fe6  1  0.67686296  0.57854104  0.70181271  1
  Fe  Fe7  1  0.85116073  0.65099606  0.39945394  1
  Fe  Fe8  1  0.70391125  0.30366108  0.78696728  1
  Fe  Fe9  1  0.87719660  0.37734090  0.49795461  1
  Fe  Fe10  1  0.72471490  0.02268272  0.90008450  1
  Fe  Fe11  1  0.89781309  0.09766629  0.60204965  1
  Fe  Fe12  1  0.19891966  0.80112685  0.79881532  1
  Fe  Fe13  1  0.37432974  0.87249847  0.49862671  1
  Fe  Fe14  1  0.55144760  0.93884875  0.20458089  1
  Fe  Fe15  1  0.22355864  0.53616057  0.89541363  1
  Fe  Fe16  1  0.57607377  0.67388802  0.30116788  1
  Fe  Fe17  1  0.75101564  0.75064944  0.00114677  1
  Fe  Fe18  1  0.43072188  0.32814152  0.69059389  1
  Fe  Fe19  1  0.60585711  0.40790582  0.40892871  1
  Fe  Fe20  1  0.77668985  0.47787360  0.09897852  1
  Fe  Fe21  1  0.62561191  0.12331413  0.50112689  1
  Fe  Fe22  1  0.81323544  0.19833401  0.20615250  1
  Fe  Fe23  1  0.09814448  0.89646446  0.39817738  1
  Fe  Fe24  1  0.27624201  0.96505851  0.10426036  1
  Fe  Fe25  1  0.12462859  0.62536554  0.49909812  1
  Fe  Fe26  1  0.29938533  0.69780823  0.20034032  1
  Fe  Fe27  1  0.14938245  0.35167631  0.59886832  1
  Fe  Fe28  1  0.32879683  0.43053336  0.31002327  1
  Fe  Fe29  1  0.49875304  0.50993242  0.99572177  1
  Fe  Fe30  1  0.16914385  0.06710608  0.69108393  1
  Fe  Fe31  1  0.34427131  0.14684242  0.40939768  1
  Fe  Fe32  1  0.02398684  0.72436278  0.09884945  1
  Fe  Fe33  1  0.05029793  0.45231641  0.19993692  1
  Fe  Fe34  1  0.07109324  0.17133467  0.31303560  1
  Fe  Fe35  1  0.99829805  0.99712261  0.00102145  1
  Fe  Fe36  1  0.40067022  0.60249605  0.60136545  1
  Fe  Fe37  1  0.44620701  0.04445867  0.78998372  1
  Sc  Sc38  1  0.53730392  0.22396078  0.10451731  1
  Sc  Sc39  1  0.23769725  0.25102376  0.99549776  1
