# generated using pymatgen
data_Fe19Ni
_symmetry_space_group_name_H-M   'P 1'
_cell_length_a   8.52515015
_cell_length_b   8.53637132
_cell_length_c   6.34402117
_cell_angle_alpha   89.84713967
_cell_angle_beta   90.17262246
_cell_angle_gamma   96.40023696
_symmetry_Int_Tables_number   1
_chemical_formula_structural   Fe19Ni
_chemical_formula_sum   'Fe38 Ni2'
_cell_volume   458.79804944
_cell_formula_units_Z   2
loop_
 _symmetry_equiv_pos_site_id
 _symmetry_equiv_pos_as_xyz
  1  'x, y, z'
loop_
 _atom_site_type_symbol
 _atom_site_label
 _atom_site_symmetry_multiplicity
 _atom_site_fract_x
 _atom_site_fract_y
 _atom_site_fract_z
 _atom_site_occupancy
  Fe  Fe0  1  0.92490554  0.82518947  0.70064869  1
  Fe  Fe1  1  0.94987614  0.54993803  0.80011753  1
  Fe  Fe2  1  0.97351397  0.27517358  0.89980262  1
  Fe  Fe3  1  0.47465066  0.77623983  0.90020644  1
  Fe  Fe4  1  0.64992315  0.85080475  0.60049375  1
  Fe  Fe5  1  0.82512147  0.92506569  0.29991156  1
  Fe  Fe6  1  0.67488094  0.57542653  0.70135638  1
  Fe  Fe7  1  0.85010787  0.64979914  0.39932914  1
  Fe  Fe8  1  0.69978909  0.30064658  0.79748507  1
  Fe  Fe9  1  0.87604532  0.37520706  0.49875223  1
  Fe  Fe10  1  0.72476555  0.02532173  0.90022549  1
  Fe  Fe11  1  0.89895132  0.09979868  0.60124023  1
  Fe  Fe12  1  0.20006220  0.80132919  0.79998016  1
  Fe  Fe13  1  0.37469362  0.87518978  0.49863035  1
  Fe  Fe14  1  0.55035800  0.94847265  0.20075865  1
  Fe  Fe15  1  0.22464210  0.52652463  0.89922852  1
  Fe  Fe16  1  0.57493052  0.67367345  0.30005466  1
  Fe  Fe17  1  0.74972327  0.74997654  0.00042291  1
  Fe  Fe18  1  0.42521307  0.32505004  0.69925053  1
  Fe  Fe19  1  0.60100357  0.40109836  0.40101694  1
  Fe  Fe20  1  0.77513890  0.47480094  0.09969852  1
  Fe  Fe21  1  0.62427699  0.12520315  0.49998150  1
  Fe  Fe22  1  0.80149168  0.19982582  0.20017879  1
  Fe  Fe23  1  0.10013332  0.89956022  0.39863000  1
  Fe  Fe24  1  0.27553360  0.97531043  0.09996689  1
  Fe  Fe25  1  0.12506843  0.62420498  0.49950828  1
  Fe  Fe26  1  0.30034275  0.69875250  0.19978572  1
  Fe  Fe27  1  0.15071883  0.34979785  0.60001474  1
  Fe  Fe28  1  0.32544816  0.42463955  0.30086685  1
  Fe  Fe29  1  0.49945760  0.49969731  0.00003931  1
  Fe  Fe30  1  0.17400247  0.07388944  0.69897452  1
  Fe  Fe31  1  0.34979403  0.14994233  0.40073913  1
  Fe  Fe32  1  0.02527018  0.72502896  0.09957689  1
  Fe  Fe33  1  0.05024683  0.44967085  0.19976572  1
  Fe  Fe34  1  0.07520826  0.17436011  0.30252933  1
  Fe  Fe35  1  0.99985863  0.00020583  0.00030251  1
  Fe  Fe36  1  0.40030079  0.59980943  0.60136453  1
  Fe  Fe37  1  0.44954648  0.05036428  0.79916330  1
  Ni  Ni38  1  0.52742132  0.22458964  0.10099849  1
  Ni  Ni39  1  0.24758339  0.25042070  0.99900315  1
