# generated using pymatgen
data_TiFe9
_symmetry_space_group_name_H-M   'P 1'
_cell_length_a   8.60769699
_cell_length_b   8.58364487
_cell_length_c   6.40822563
_cell_angle_alpha   89.75419519
_cell_angle_beta   90.09575591
_cell_angle_gamma   96.63126787
_symmetry_Int_Tables_number   1
_chemical_formula_structural   TiFe9
_chemical_formula_sum   'Ti4 Fe36'
_cell_volume   470.30215271
_cell_formula_units_Z   4
loop_
 _symmetry_equiv_pos_site_id
 _symmetry_equiv_pos_as_xyz
  1  'x, y, z'
loop_
 _atom_site_type_symbol
 _atom_site_label
 _atom_site_symmetry_multiplicity
 _atom_site_fract_x
 _atom_site_fract_y
 _atom_site_fract_z
 _atom_site_occupancy
  Fe  Fe0  1  0.92463665  0.82470509  0.69977482  1
  Fe  Fe1  1  0.95085484  0.55106033  0.79993510  1
  Fe  Fe2  1  0.96836731  0.27634733  0.89631575  1
  Fe  Fe3  1  0.47756795  0.77250045  0.90627860  1
  Fe  Fe4  1  0.65172684  0.84923780  0.59926713  1
  Fe  Fe5  1  0.82479825  0.92423517  0.30039682  1
  Fe  Fe6  1  0.67995615  0.57579619  0.70379793  1
  Fe  Fe7  1  0.84965240  0.65065698  0.39979027  1
  Fe  Fe8  1  0.70138299  0.30031011  0.79511161  1
  Fe  Fe9  1  0.87603014  0.37582195  0.50018154  1
  Fe  Fe10  1  0.72923715  0.02408522  0.90269746  1
  Fe  Fe11  1  0.89821159  0.09906941  0.60096689  1
  Fe  Fe12  1  0.19806086  0.80044552  0.79960769  1
  Fe  Fe13  1  0.37243998  0.87491601  0.49019674  1
  Fe  Fe14  1  0.55151918  0.94649550  0.20117497  1
  Fe  Fe15  1  0.22055453  0.52917441  0.90202415  1
  Fe  Fe16  1  0.57777825  0.67517141  0.29595473  1
  Fe  Fe17  1  0.75207584  0.75092268  0.00020790  1
  Fe  Fe18  1  0.42735096  0.32255505  0.69925977  1
  Fe  Fe19  1  0.60423063  0.40429070  0.40694068  1
  Fe  Fe20  1  0.77685762  0.47730268  0.09918111  1
  Fe  Fe21  1  0.62978534  0.12533728  0.49711591  1
  Fe  Fe22  1  0.80800778  0.19993284  0.20211557  1
  Fe  Fe23  1  0.09837081  0.89872527  0.39854580  1
  Fe  Fe24  1  0.27477519  0.97293874  0.10346836  1
  Fe  Fe25  1  0.12010196  0.62532504  0.49746186  1
  Fe  Fe26  1  0.29892570  0.69895276  0.19822605  1
  Fe  Fe27  1  0.14858765  0.35051933  0.59872981  1
  Fe  Fe28  1  0.32392659  0.42520231  0.30007730  1
  Fe  Fe29  1  0.49931816  0.50240120  0.00063790  1
  Fe  Fe30  1  0.16775068  0.07246964  0.69399009  1
  Fe  Fe31  1  0.34647582  0.15043355  0.40156495  1
  Fe  Fe32  1  0.02468363  0.72498109  0.09926132  1
  Fe  Fe33  1  0.04853589  0.45118022  0.20090472  1
  Fe  Fe34  1  0.07251498  0.17374055  0.30670830  1
  Fe  Fe35  1  0.99995363  0.99872537  0.00117265  1
  Ti  Ti36  1  0.39925644  0.60044598  0.60094545  1
  Ti  Ti37  1  0.44845533  0.04140606  0.78883490  1
  Ti  Ti38  1  0.53864670  0.22984895  0.11402242  1
  Ti  Ti39  1  0.23863761  0.25233382  0.99715502  1
