# generated using pymatgen
data_MnFe9
_symmetry_space_group_name_H-M   'P 1'
_cell_length_a   8.49940856
_cell_length_b   8.50674343
_cell_length_c   6.32589594
_cell_angle_alpha   89.96889817
_cell_angle_beta   90.06239466
_cell_angle_gamma   96.25410189
_symmetry_Int_Tables_number   1
_chemical_formula_structural   MnFe9
_chemical_formula_sum   'Mn4 Fe36'
_cell_volume   454.65437972
_cell_formula_units_Z   4
loop_
 _symmetry_equiv_pos_site_id
 _symmetry_equiv_pos_as_xyz
  1  'x, y, z'
loop_
 _atom_site_type_symbol
 _atom_site_label
 _atom_site_symmetry_multiplicity
 _atom_site_fract_x
 _atom_site_fract_y
 _atom_site_fract_z
 _atom_site_occupancy
  Fe  Fe0  1  0.92495917  0.82526617  0.70043267  1
  Fe  Fe1  1  0.94940575  0.54993903  0.80015333  1
  Fe  Fe2  1  0.97534722  0.27497842  0.89969702  1
  Fe  Fe3  1  0.47474332  0.77623095  0.89916998  1
  Fe  Fe4  1  0.64923390  0.85117154  0.60046079  1
  Fe  Fe5  1  0.82469126  0.92518487  0.30051127  1
  Fe  Fe6  1  0.67376651  0.57554784  0.70038885  1
  Fe  Fe7  1  0.85027770  0.64950791  0.39978371  1
  Fe  Fe8  1  0.69993217  0.30029292  0.79900043  1
  Fe  Fe9  1  0.87556051  0.37496283  0.49962176  1
  Fe  Fe10  1  0.72414287  0.02538041  0.90037448  1
  Fe  Fe11  1  0.89950456  0.10020183  0.59968876  1
  Fe  Fe12  1  0.20058965  0.80034557  0.80007720  1
  Fe  Fe13  1  0.37533951  0.87470445  0.50039505  1
  Fe  Fe14  1  0.54980903  0.94969444  0.19998553  1
  Fe  Fe15  1  0.22655977  0.52385981  0.89882216  1
  Fe  Fe16  1  0.57388374  0.67423694  0.30156445  1
  Fe  Fe17  1  0.74948820  0.75008485  0.00130048  1
  Fe  Fe18  1  0.42464935  0.32598843  0.69947469  1
  Fe  Fe19  1  0.59975745  0.39930315  0.40082974  1
  Fe  Fe20  1  0.77415655  0.47429775  0.09983714  1
  Fe  Fe21  1  0.62363855  0.12515279  0.50037328  1
  Fe  Fe22  1  0.79939551  0.20006400  0.20001215  1
  Fe  Fe23  1  0.10073152  0.90025285  0.39966115  1
  Fe  Fe24  1  0.27533342  0.97484134  0.10011384  1
  Fe  Fe25  1  0.12664139  0.62443545  0.50019186  1
  Fe  Fe26  1  0.30023567  0.69983003  0.19954981  1
  Fe  Fe27  1  0.15134136  0.34980625  0.60008174  1
  Fe  Fe28  1  0.32598325  0.42462636  0.30034256  1
  Fe  Fe29  1  0.50001267  0.50093006  0.99987514  1
  Fe  Fe30  1  0.17550731  0.07562109  0.70118707  1
  Fe  Fe31  1  0.35052757  0.14926620  0.40185137  1
  Fe  Fe32  1  0.02538586  0.72472196  0.09987902  1
  Fe  Fe33  1  0.05094528  0.44957306  0.19837733  1
  Fe  Fe34  1  0.07676263  0.17566781  0.29932530  1
  Fe  Fe35  1  0.99986791  0.00037829  0.00082984  1
  Mn  Mn36  1  0.40013676  0.59908057  0.60009284  1
  Mn  Mn37  1  0.44987655  0.05286997  0.80280561  1
  Mn  Mn38  1  0.51840505  0.22274198  0.09327952  1
  Mn  Mn39  1  0.25347355  0.24895981  0.00060112  1
