# generated using pymatgen
data_MnFe38
_symmetry_space_group_name_H-M   'P 1'
_cell_length_a   8.47769300
_cell_length_b   8.50503004
_cell_length_c   6.32521616
_cell_angle_alpha   89.92126579
_cell_angle_beta   90.13346556
_cell_angle_gamma   96.27648447
_symmetry_Int_Tables_number   1
_chemical_formula_structural   MnFe38
_chemical_formula_sum   'Mn1 Fe38'
_cell_volume   453.33204774
_cell_formula_units_Z   1
loop_
 _symmetry_equiv_pos_site_id
 _symmetry_equiv_pos_as_xyz
  1  'x, y, z'
loop_
 _atom_site_type_symbol
 _atom_site_label
 _atom_site_symmetry_multiplicity
 _atom_site_fract_x
 _atom_site_fract_y
 _atom_site_fract_z
 _atom_site_occupancy
  Fe  Fe0  1  0.92533727  0.82516700  0.69982617  1
  Fe  Fe1  1  0.95096666  0.54863778  0.80082906  1
  Fe  Fe2  1  0.98417865  0.27392266  0.90248595  1
  Fe  Fe3  1  0.47380451  0.77550053  0.89977232  1
  Fe  Fe4  1  0.64960863  0.85102209  0.60059879  1
  Fe  Fe5  1  0.82428834  0.92588242  0.30084710  1
  Fe  Fe6  1  0.67514124  0.57512877  0.70097004  1
  Fe  Fe7  1  0.84985455  0.64965265  0.39929619  1
  Fe  Fe8  1  0.70021972  0.30020162  0.79883500  1
  Fe  Fe9  1  0.87504174  0.37448616  0.49942529  1
  Fe  Fe10  1  0.72502752  0.02589081  0.89997747  1
  Fe  Fe11  1  0.90059928  0.10102023  0.60048131  1
  Fe  Fe12  1  0.20029276  0.80180404  0.80189547  1
  Fe  Fe13  1  0.37406395  0.87444689  0.49845186  1
  Fe  Fe14  1  0.54874241  0.94945614  0.19985407  1
  Fe  Fe15  1  0.22577565  0.51638755  0.90163390  1
  Fe  Fe16  1  0.57400501  0.67386831  0.30091602  1
  Fe  Fe17  1  0.74952738  0.75027666  0.00114758  1
  Fe  Fe18  1  0.42072314  0.32285460  0.70825295  1
  Fe  Fe19  1  0.59820378  0.39950176  0.40242907  1
  Fe  Fe20  1  0.77505743  0.47418106  0.10004767  1
  Fe  Fe21  1  0.62540389  0.12548414  0.49945276  1
  Fe  Fe22  1  0.80030242  0.20037183  0.19791642  1
  Fe  Fe23  1  0.10112371  0.90201451  0.39856214  1
  Fe  Fe24  1  0.27475674  0.98472438  0.09738657  1
  Fe  Fe25  1  0.12574011  0.62541203  0.50067909  1
  Fe  Fe26  1  0.29962583  0.69823227  0.19816090  1
  Fe  Fe27  1  0.15096336  0.35061920  0.59306122  1
  Fe  Fe28  1  0.32370196  0.41955698  0.29055538  1
  Fe  Fe29  1  0.50171432  0.50187583  0.99959701  1
  Fe  Fe30  1  0.17614956  0.07994680  0.70930804  1
  Fe  Fe31  1  0.35071404  0.14978415  0.40779008  1
  Fe  Fe32  1  0.02573457  0.72492440  0.10002757  1
  Fe  Fe33  1  0.04851109  0.45152305  0.20087531  1
  Fe  Fe34  1  0.08094969  0.17688609  0.29179764  1
  Fe  Fe35  1  0.99690712  0.99774467  0.00104853  1
  Fe  Fe36  1  0.39918383  0.59667112  0.60066708  1
  Fe  Fe37  1  0.45128585  0.04910995  0.79726086  1
  Mn  Mn38  1  0.51677231  0.22582888  0.09788017  1
