# generated using pymatgen
data_Ti2Bi
_symmetry_space_group_name_H-M   'P 1'
_cell_length_a   7.68196681
_cell_length_b   7.68196681
_cell_length_c   7.68196681
_cell_angle_alpha   45.50507930
_cell_angle_beta   148.25770875
_cell_angle_gamma   148.25770875
_symmetry_Int_Tables_number   1
_chemical_formula_structural   Ti2Bi
_chemical_formula_sum   'Ti4 Bi2'
_cell_volume   125.06320384
_cell_formula_units_Z   2
loop_
 _symmetry_equiv_pos_site_id
 _symmetry_equiv_pos_as_xyz
  1  'x, y, z'
loop_
 _atom_site_type_symbol
 _atom_site_label
 _atom_site_symmetry_multiplicity
 _atom_site_fract_x
 _atom_site_fract_y
 _atom_site_fract_z
 _atom_site_occupancy
  Ti  Ti0  1  0.00000000  0.85873229  0.85873229  1
  Ti  Ti1  1  0.00000000  0.14126771  0.14126771  1
  Ti  Ti2  1  0.50000000  0.00000000  0.50000000  1
  Ti  Ti3  1  0.50000000  0.50000000  0.00000000  1
  Bi  Bi4  1  0.00000000  0.64954851  0.64954851  1
  Bi  Bi5  1  0.00000000  0.35045149  0.35045149  1
