# generated using pymatgen
data_Hf8Ta7AgC16
_symmetry_space_group_name_H-M   'P 1'
_cell_length_a   9.14895810
_cell_length_b   9.14895811
_cell_length_c   4.56433041
_cell_angle_alpha   90.00000000
_cell_angle_beta   90.00000000
_cell_angle_gamma   89.98903315
_symmetry_Int_Tables_number   1
_chemical_formula_structural   Hf8Ta7AgC16
_chemical_formula_sum   'Hf8 Ta7 Ag1 C16'
_cell_volume   382.05012399
_cell_formula_units_Z   1
loop_
 _symmetry_equiv_pos_site_id
 _symmetry_equiv_pos_as_xyz
  1  'x, y, z'
loop_
 _atom_site_type_symbol
 _atom_site_label
 _atom_site_symmetry_multiplicity
 _atom_site_fract_x
 _atom_site_fract_y
 _atom_site_fract_z
 _atom_site_occupancy
  C  C0  1  0.24871023  0.98820850  0.00000001  1
  C  C1  1  0.98820848  0.24871023  0.00000000  1
  C  C2  1  0.99965834  0.99965836  0.50000000  1
  C  C3  1  0.24860167  0.51732096  -0.00000002  1
  C  C4  1  0.99818327  0.75100706  -0.00000001  1
  C  C5  1  0.00004378  0.49872369  0.50000002  1
  C  C6  1  0.75100708  0.99818328  -0.00000000  1
  C  C7  1  0.51732097  0.24860169  0.00000001  1
  C  C8  1  0.49872372  0.00004375  0.49999999  1
  C  C9  1  0.75102546  0.50125120  0.00000000  1
  C  C10  1  0.50125119  0.75102543  0.00000000  1
  C  C11  1  0.49844417  0.49844419  0.50000002  1
  C  C12  1  0.24409684  0.24409687  0.49999998  1
  C  C13  1  0.75336133  0.24675167  0.49999999  1
  C  C14  1  0.24675168  0.75336130  0.50000001  1
  C  C15  1  0.75313921  0.75313923  0.50000000  1
  Hf  Hf16  1  0.00169985  0.00169984  -0.00000000  1
  Hf  Hf17  1  0.49853254  0.00093978  0.00000000  1
  Hf  Hf18  1  0.00093978  0.49853255  -0.00000002  1
  Hf  Hf19  1  0.49934994  0.49934994  0.00000000  1
  Hf  Hf20  1  0.49653954  0.24871236  0.50000002  1
  Hf  Hf21  1  0.49969134  0.75042568  0.50000000  1
  Hf  Hf22  1  0.24871236  0.49653954  0.50000000  1
  Hf  Hf23  1  0.75042567  0.49969135  0.49999998  1
  Ta  Ta24  1  0.74912499  0.24955595  0.00000002  1
  Ta  Ta25  1  0.24955594  0.74912499  -0.00000003  1
  Ta  Ta26  1  0.75115503  0.75115502  0.00000001  1
  Ta  Ta27  1  0.24830401  0.00115196  0.50000002  1
  Ta  Ta28  1  0.75059951  -0.00010805  0.50000000  1
  Ta  Ta29  1  -0.00010804  0.75059953  0.50000000  1
  Ta  Ta30  1  0.00115198  0.24830400  0.49999998  1
  Ag  Ag31  1  0.25579815  0.25579817  0.00000000  1
