# generated using pymatgen
data_Hf9Ta7C16
_symmetry_space_group_name_H-M   'P 1'
_cell_length_a   9.12323143
_cell_length_b   9.13345462
_cell_length_c   4.57246363
_cell_angle_alpha   90.00000000
_cell_angle_beta   90.00000000
_cell_angle_gamma   89.96762495
_symmetry_Int_Tables_number   1
_chemical_formula_structural   Hf9Ta7C16
_chemical_formula_sum   'Hf9 Ta7 C16'
_cell_volume   381.00787962
_cell_formula_units_Z   1
loop_
 _symmetry_equiv_pos_site_id
 _symmetry_equiv_pos_as_xyz
  1  'x, y, z'
loop_
 _atom_site_type_symbol
 _atom_site_label
 _atom_site_symmetry_multiplicity
 _atom_site_fract_x
 _atom_site_fract_y
 _atom_site_fract_z
 _atom_site_occupancy
  Ta  Ta0  1  0.00069746  0.99974233  0.00000000  1
  Ta  Ta1  1  0.25018136  0.99968572  0.50000000  1
  Ta  Ta2  1  0.25078134  0.75012107  0.00000000  1
  Ta  Ta3  1  0.50025175  0.50070531  0.00000000  1
  Ta  Ta4  1  0.49998260  0.74992832  0.50000000  1
  Ta  Ta5  1  0.74924240  0.50031084  0.50000000  1
  Ta  Ta6  1  0.74913544  0.74989828  0.00000000  1
  Hf  Hf7  1  0.00001727  0.24924775  0.50000000  1
  Hf  Hf8  1  0.25028031  0.24916521  0.00000000  1
  Hf  Hf9  1  0.49936074  0.99892323  0.00000000  1
  Hf  Hf10  1  0.50005609  0.25099207  0.50000000  1
  Hf  Hf11  1  0.75029549  0.99905811  0.50000000  1
  Hf  Hf12  1  0.74971076  0.25076500  0.00000000  1
  Hf  Hf13  1  0.99912429  0.50047371  0.00000000  1
  Hf  Hf14  1  0.99997129  0.75027744  0.50000000  1
  Hf  Hf15  1  0.25092858  0.50092063  0.50000000  1
  C  C16  1  0.25019933  0.24596005  0.50000000  1
  C  C17  1  0.24782464  0.99580968  0.00000000  1
  C  C18  1  0.00000521  0.24580059  0.00000000  1
  C  C19  1  0.00313340  0.99841668  0.50000000  1
  C  C20  1  0.74967060  0.25384727  0.50000000  1
  C  C21  1  0.75284633  0.99502224  0.00000000  1
  C  C22  1  0.50005333  0.25387939  0.00000000  1
  C  C23  1  0.49644627  0.99458126  0.50000000  1
  C  C24  1  0.25316727  0.75295593  0.50000000  1
  C  C25  1  0.25442190  0.50503876  0.00000000  1
  C  C26  1  0.00009855  0.75341909  0.00000000  1
  C  C27  1  0.99606033  0.50161428  0.50000000  1
  C  C28  1  0.74677659  0.74714579  0.50000000  1
  C  C29  1  0.74630511  0.50421492  0.00000000  1
  C  C30  1  0.50004098  0.74731023  0.00000000  1
  C  C31  1  0.50293300  0.50476879  0.50000000  1
