# generated using pymatgen
data_VFe19
_symmetry_space_group_name_H-M   'P 1'
_cell_length_a   8.54258072
_cell_length_b   8.52816520
_cell_length_c   6.34728334
_cell_angle_alpha   89.90910240
_cell_angle_beta   90.05382567
_cell_angle_gamma   96.39098855
_symmetry_Int_Tables_number   1
_chemical_formula_structural   VFe19
_chemical_formula_sum   'V2 Fe38'
_cell_volume   459.54128608
_cell_formula_units_Z   2
loop_
 _symmetry_equiv_pos_site_id
 _symmetry_equiv_pos_as_xyz
  1  'x, y, z'
loop_
 _atom_site_type_symbol
 _atom_site_label
 _atom_site_symmetry_multiplicity
 _atom_site_fract_x
 _atom_site_fract_y
 _atom_site_fract_z
 _atom_site_occupancy
  Fe  Fe0  1  0.92481127  0.82516204  0.69996681  1
  Fe  Fe1  1  0.95006860  0.55030202  0.79943787  1
  Fe  Fe2  1  0.97305181  0.27541694  0.89897297  1
  Fe  Fe3  1  0.47481150  0.77570969  0.90033045  1
  Fe  Fe4  1  0.64970378  0.85050236  0.60032718  1
  Fe  Fe5  1  0.82493264  0.92469754  0.30058185  1
  Fe  Fe6  1  0.67476352  0.57571119  0.70121259  1
  Fe  Fe7  1  0.85019958  0.64981837  0.40002921  1
  Fe  Fe8  1  0.70002674  0.30053490  0.79811237  1
  Fe  Fe9  1  0.87578976  0.37521566  0.49922707  1
  Fe  Fe10  1  0.72539509  0.02425829  0.90030981  1
  Fe  Fe11  1  0.89921781  0.09980646  0.60076677  1
  Fe  Fe12  1  0.20003797  0.80106740  0.79978782  1
  Fe  Fe13  1  0.37489148  0.87534245  0.49954713  1
  Fe  Fe14  1  0.55024553  0.94893038  0.20086294  1
  Fe  Fe15  1  0.22475019  0.52606077  0.89912797  1
  Fe  Fe16  1  0.57495523  0.67391772  0.30022923  1
  Fe  Fe17  1  0.74987861  0.75012151  0.00092861  1
  Fe  Fe18  1  0.42447403  0.32483963  0.69981306  1
  Fe  Fe19  1  0.60105521  0.40020503  0.40169076  1
  Fe  Fe20  1  0.77602254  0.47585235  0.09937071  1
  Fe  Fe21  1  0.62506594  0.12441665  0.50222400  1
  Fe  Fe22  1  0.80196305  0.19960296  0.20102136  1
  Fe  Fe23  1  0.10024552  0.89927293  0.39878765  1
  Fe  Fe24  1  0.27543014  0.97548996  0.09996979  1
  Fe  Fe25  1  0.12528775  0.62448759  0.49967616  1
  Fe  Fe26  1  0.30017958  0.69926693  0.19966806  1
  Fe  Fe27  1  0.14993012  0.35059424  0.59778646  1
  Fe  Fe28  1  0.32544704  0.42428449  0.29991930  1
  Fe  Fe29  1  0.49956160  0.49951008  0.00002519  1
  Fe  Fe30  1  0.17394826  0.07479658  0.69831136  1
  Fe  Fe31  1  0.35052538  0.15016147  0.40017832  1
  Fe  Fe32  1  0.02511862  0.72486492  0.09906785  1
  Fe  Fe33  1  0.04961585  0.45074767  0.19967557  1
  Fe  Fe34  1  0.07498001  0.17449174  0.30189011  1
  Fe  Fe35  1  0.99898125  0.99915346  0.00062526  1
  Fe  Fe36  1  0.40009688  0.59964660  0.60045066  1
  Fe  Fe37  1  0.44954166  0.05072162  0.80009646  1
  V  V38  1  0.53341841  0.22417169  0.10317664  1
  V  V39  1  0.24158005  0.25084576  0.99681663  1
