# generated using pymatgen
data_ZnFe38
_symmetry_space_group_name_H-M   'P 1'
_cell_length_a   8.48303063
_cell_length_b   8.51690300
_cell_length_c   6.32681114
_cell_angle_alpha   89.88506420
_cell_angle_beta   90.18527126
_cell_angle_gamma   96.23555727
_symmetry_Int_Tables_number   1
_chemical_formula_structural   ZnFe38
_chemical_formula_sum   'Zn1 Fe38'
_cell_volume   454.39935755
_cell_formula_units_Z   1
loop_
 _symmetry_equiv_pos_site_id
 _symmetry_equiv_pos_as_xyz
  1  'x, y, z'
loop_
 _atom_site_type_symbol
 _atom_site_label
 _atom_site_symmetry_multiplicity
 _atom_site_fract_x
 _atom_site_fract_y
 _atom_site_fract_z
 _atom_site_occupancy
  Fe  Fe0  1  0.92541211  0.82509838  0.70014765  1
  Fe  Fe1  1  0.95138776  0.54858444  0.80056330  1
  Fe  Fe2  1  0.98594529  0.27389262  0.90368068  1
  Fe  Fe3  1  0.47397379  0.77607826  0.89936555  1
  Fe  Fe4  1  0.65023119  0.85038574  0.60018326  1
  Fe  Fe5  1  0.82477617  0.92582747  0.30071816  1
  Fe  Fe6  1  0.67622054  0.57558783  0.70091347  1
  Fe  Fe7  1  0.85015798  0.64995756  0.39947712  1
  Fe  Fe8  1  0.69976087  0.30046030  0.79865657  1
  Fe  Fe9  1  0.87605226  0.37467911  0.49964426  1
  Fe  Fe10  1  0.72507133  0.02683401  0.90045642  1
  Fe  Fe11  1  0.90111049  0.10093859  0.60100377  1
  Fe  Fe12  1  0.19998661  0.80103001  0.80136077  1
  Fe  Fe13  1  0.37364282  0.87310825  0.49737771  1
  Fe  Fe14  1  0.54832730  0.94940595  0.19952638  1
  Fe  Fe15  1  0.22619485  0.51724757  0.90205157  1
  Fe  Fe16  1  0.57484611  0.67408651  0.30110940  1
  Fe  Fe17  1  0.75008132  0.75044766  0.00073556  1
  Fe  Fe18  1  0.41938780  0.32266094  0.71106105  1
  Fe  Fe19  1  0.59829201  0.40015367  0.40211678  1
  Fe  Fe20  1  0.77533414  0.47338215  0.09998352  1
  Fe  Fe21  1  0.62577449  0.12585765  0.49732050  1
  Fe  Fe22  1  0.80315357  0.20050779  0.19857964  1
  Fe  Fe23  1  0.10045207  0.90136609  0.39895492  1
  Fe  Fe24  1  0.27409424  0.98531588  0.09709138  1
  Fe  Fe25  1  0.12584426  0.62505720  0.50015599  1
  Fe  Fe26  1  0.29976335  0.69881662  0.19835816  1
  Fe  Fe27  1  0.15011323  0.35071905  0.59356591  1
  Fe  Fe28  1  0.32327814  0.41888604  0.29004167  1
  Fe  Fe29  1  0.50391826  0.50737099  0.99880911  1
  Fe  Fe30  1  0.17564462  0.07889103  0.71092052  1
  Fe  Fe31  1  0.34954562  0.14809115  0.41365024  1
  Fe  Fe32  1  0.02584201  0.72488140  0.09985418  1
  Fe  Fe33  1  0.04852157  0.45221797  0.20167413  1
  Fe  Fe34  1  0.08185906  0.17662098  0.29259496  1
  Fe  Fe35  1  0.99665755  0.99703373  0.00099633  1
  Fe  Fe36  1  0.39951188  0.59709712  0.60000003  1
  Fe  Fe37  1  0.45226796  0.04494487  0.79258500  1
  Zn  Zn38  1  0.50756537  0.22647742  0.09471436  1
