# generated using pymatgen
data_ZnFe9
_symmetry_space_group_name_H-M   'P 1'
_cell_length_a   8.57443548
_cell_length_b   8.58051463
_cell_length_c   6.39772567
_cell_angle_alpha   89.91670974
_cell_angle_beta   90.18765501
_cell_angle_gamma   96.89646090
_symmetry_Int_Tables_number   1
_chemical_formula_structural   ZnFe9
_chemical_formula_sum   'Zn4 Fe36'
_cell_volume   467.29191046
_cell_formula_units_Z   4
loop_
 _symmetry_equiv_pos_site_id
 _symmetry_equiv_pos_as_xyz
  1  'x, y, z'
loop_
 _atom_site_type_symbol
 _atom_site_label
 _atom_site_symmetry_multiplicity
 _atom_site_fract_x
 _atom_site_fract_y
 _atom_site_fract_z
 _atom_site_occupancy
  Fe  Fe0  1  0.92495180  0.82543679  0.70124644  1
  Fe  Fe1  1  0.95071038  0.55068579  0.80069488  1
  Fe  Fe2  1  0.96942769  0.27630624  0.89657279  1
  Fe  Fe3  1  0.47853611  0.77298287  0.90936290  1
  Fe  Fe4  1  0.64749102  0.85054765  0.60030580  1
  Fe  Fe5  1  0.82470413  0.92442580  0.30090384  1
  Fe  Fe6  1  0.67944184  0.57643320  0.70322730  1
  Fe  Fe7  1  0.84899893  0.64998574  0.39875059  1
  Fe  Fe8  1  0.70088903  0.29959689  0.79399064  1
  Fe  Fe9  1  0.87675419  0.37583396  0.49880223  1
  Fe  Fe10  1  0.72929210  0.02468766  0.90195988  1
  Fe  Fe11  1  0.89689481  0.09912452  0.60034864  1
  Fe  Fe12  1  0.20291360  0.80123968  0.79828776  1
  Fe  Fe13  1  0.37199299  0.87522391  0.48899596  1
  Fe  Fe14  1  0.55073885  0.94734267  0.20153716  1
  Fe  Fe15  1  0.22112432  0.52947462  0.90444117  1
  Fe  Fe16  1  0.57799311  0.67518529  0.29638597  1
  Fe  Fe17  1  0.75246791  0.75072950  0.99971961  1
  Fe  Fe18  1  0.42734148  0.32404749  0.69468429  1
  Fe  Fe19  1  0.60151484  0.40565822  0.40600473  1
  Fe  Fe20  1  0.77416173  0.47421411  0.09963783  1
  Fe  Fe21  1  0.62805078  0.12792351  0.49368058  1
  Fe  Fe22  1  0.80549156  0.19974979  0.19996538  1
  Fe  Fe23  1  0.09766021  0.89817307  0.39879056  1
  Fe  Fe24  1  0.27313317  0.97014700  0.10648371  1
  Fe  Fe25  1  0.12120708  0.62429015  0.49921475  1
  Fe  Fe26  1  0.29946349  0.69741897  0.20208278  1
  Fe  Fe27  1  0.15119812  0.35158575  0.60308690  1
  Fe  Fe28  1  0.32536651  0.42407107  0.30152887  1
  Fe  Fe29  1  0.49735794  0.50291557  0.99524546  1
  Fe  Fe30  1  0.16960324  0.07229477  0.69480484  1
  Fe  Fe31  1  0.34733238  0.14910412  0.40385418  1
  Fe  Fe32  1  0.02553986  0.72457818  0.09864550  1
  Fe  Fe33  1  0.04940292  0.44814190  0.19977940  1
  Fe  Fe34  1  0.07516037  0.17433788  0.30748421  1
  Fe  Fe35  1  0.00183802  0.00141530  0.00081737  1
  Zn  Zn36  1  0.40044686  0.60278836  0.60258188  1
  Zn  Zn37  1  0.45050384  0.04381801  0.79467612  1
  Zn  Zn38  1  0.52838020  0.22765059  0.10374483  1
  Zn  Zn39  1  0.24452259  0.25043336  0.99767231  1
