# generated using pymatgen
data_Ti2CN
_symmetry_space_group_name_H-M   'P 1'
_cell_length_a   8.57630107
_cell_length_b   8.57977782
_cell_length_c   8.58378883
_cell_angle_alpha   90.01787313
_cell_angle_beta   90.02486200
_cell_angle_gamma   90.00001155
_symmetry_Int_Tables_number   1
_chemical_formula_structural   Ti2CN
_chemical_formula_sum   'Ti32 C16 N16'
_cell_volume   631.61876310
_cell_formula_units_Z   16
loop_
 _symmetry_equiv_pos_site_id
 _symmetry_equiv_pos_as_xyz
  1  'x, y, z'
loop_
 _atom_site_type_symbol
 _atom_site_label
 _atom_site_symmetry_multiplicity
 _atom_site_fract_x
 _atom_site_fract_y
 _atom_site_fract_z
 _atom_site_occupancy
  Ti  Ti0  1  0.99858248  0.99913154  0.99688637  1
  Ti  Ti1  1  0.99761213  0.25063379  0.25306468  1
  Ti  Ti2  1  0.25071759  0.99961754  0.25312068  1
  Ti  Ti3  1  0.25245400  0.25201103  0.99943197  1
  Ti  Ti4  1  0.00098958  0.00208729  0.50315626  1
  Ti  Ti5  1  0.99774109  0.25234703  0.74946590  1
  Ti  Ti6  1  0.25311881  0.00065802  0.74860757  1
  Ti  Ti7  1  0.25090050  0.25124396  0.50091514  1
  Ti  Ti8  1  0.99954052  0.49911877  0.99852261  1
  Ti  Ti9  1  0.99715734  0.74928186  0.24702903  1
  Ti  Ti10  1  0.25058248  0.50047503  0.25030168  1
  Ti  Ti11  1  0.25047237  0.74836308  0.99951098  1
  Ti  Ti12  1  0.99975311  0.49989074  0.50164763  1
  Ti  Ti13  1  0.99826455  0.74653828  0.75174989  1
  Ti  Ti14  1  0.25096610  0.49969366  0.74989145  1
  Ti  Ti15  1  0.25061647  0.74874439  0.50049058  1
  Ti  Ti16  1  0.49968133  0.00049618  0.99827235  1
  Ti  Ti17  1  0.50208496  0.25061055  0.25010148  1
  Ti  Ti18  1  0.74938692  0.99810504  0.24763137  1
  Ti  Ti19  1  0.74935849  0.25060485  0.99853453  1
  Ti  Ti20  1  0.50003015  0.00165555  0.50231845  1
  Ti  Ti21  1  0.50071286  0.25123160  0.75007862  1
  Ti  Ti22  1  0.74791011  0.00199011  0.75049416  1
  Ti  Ti23  1  0.74919836  0.25097972  0.50161866  1
  Ti  Ti24  1  0.50052339  0.49967975  0.99895742  1
  Ti  Ti25  1  0.50244645  0.74934408  0.24663539  1
  Ti  Ti26  1  0.74966775  0.50074967  0.24916845  1
  Ti  Ti27  1  0.74960765  0.74910832  0.99864453  1
  Ti  Ti28  1  0.50021544  0.49959029  0.50176404  1
  Ti  Ti29  1  0.50134872  0.74875789  0.75165178  1
  Ti  Ti30  1  0.74915668  0.49949568  0.75021847  1
  Ti  Ti31  1  0.74958404  0.74737136  0.49890003  1
  N  N32  1  0.24910400  0.24925596  0.24900014  1
  N  N33  1  0.24862410  0.00079892  0.00106526  1
  N  N34  1  0.00136751  0.24859777  0.00184323  1
  N  N35  1  0.00062393  0.00065605  0.25012681  1
  N  N36  1  0.24861793  0.24865011  0.75171937  1
  N  N37  1  0.00070858  0.99920767  0.75000759  1
  N  N38  1  0.24980727  0.75099370  0.25089035  1
  N  N39  1  0.00073826  0.49929230  0.25009136  1
  N  N40  1  0.24916873  0.75137212  0.74930942  1
  N  N41  1  -0.00001860  0.75122246  0.49981933  1
  N  N42  1  0.75101399  0.24887450  0.25026771  1
  N  N43  1  0.49927591  0.99980948  0.25065565  1
  N  N44  1  0.75071209  0.99858379  0.49923522  1
  N  N45  1  0.49933057  0.50023916  0.25055952  1
  N  N46  1  0.75093392  0.75127639  0.74772738  1
  N  N47  1  0.49999281  0.75044208  0.49885548  1
  C  C48  1  0.24956197  0.99912904  0.49969392  1
  C  C49  1  0.00002218  0.24899065  0.49907529  1
  C  C50  1  0.24971955  0.49948526  0.00156050  1
  C  C51  1  0.00094161  0.75092452  0.99987929  1
  C  C52  1  0.25000811  0.50137657  0.49881909  1
  C  C53  1  0.00062114  0.50058720  0.75002373  1
  C  C54  1  0.75105614  0.00042880  0.00040026  1
  C  C55  1  0.49883891  0.24967531  0.00214265  1
  C  C56  1  0.75091910  0.24905353  0.75003765  1
  C  C57  1  0.49988499  0.24958627  0.49826749  1
  C  C58  1  0.49933219  0.99899735  0.74948873  1
  C  C59  1  0.75010229  0.75047898  0.25086525  1
  C  C60  1  0.75056548  0.49931515  0.00118132  1
  C  C61  1  0.49877955  0.75052913  0.00051497  1
  C  C62  1  0.74995526  0.50125845  0.49863566  1
  C  C63  1  0.49930809  0.50130469  0.74945821  1
