# generated using pymatgen
data_Fe38Cu
_symmetry_space_group_name_H-M   'P 1'
_cell_length_a   8.47851347
_cell_length_b   8.50695689
_cell_length_c   6.31862462
_cell_angle_alpha   89.90729122
_cell_angle_beta   90.14775915
_cell_angle_gamma   96.18417938
_symmetry_Int_Tables_number   1
_chemical_formula_structural   Fe38Cu
_chemical_formula_sum   'Fe38 Cu1'
_cell_volume   453.08534156
_cell_formula_units_Z   1
loop_
 _symmetry_equiv_pos_site_id
 _symmetry_equiv_pos_as_xyz
  1  'x, y, z'
loop_
 _atom_site_type_symbol
 _atom_site_label
 _atom_site_symmetry_multiplicity
 _atom_site_fract_x
 _atom_site_fract_y
 _atom_site_fract_z
 _atom_site_occupancy
  Fe  Fe0  1  0.92543059  0.82506378  0.69989157  1
  Fe  Fe1  1  0.95136145  0.54864734  0.80055419  1
  Fe  Fe2  1  0.98550242  0.27391851  0.90348324  1
  Fe  Fe3  1  0.47396706  0.77611616  0.89971730  1
  Fe  Fe4  1  0.64997872  0.85030695  0.60007163  1
  Fe  Fe5  1  0.82445505  0.92589894  0.30043573  1
  Fe  Fe6  1  0.67587125  0.57522102  0.70095877  1
  Fe  Fe7  1  0.85003991  0.65001885  0.39945474  1
  Fe  Fe8  1  0.69975784  0.30026783  0.79959988  1
  Fe  Fe9  1  0.87552228  0.37471639  0.49953914  1
  Fe  Fe10  1  0.72505835  0.02639559  0.90006553  1
  Fe  Fe11  1  0.90087952  0.10098904  0.60056528  1
  Fe  Fe12  1  0.20021409  0.80144494  0.80159355  1
  Fe  Fe13  1  0.37377283  0.87352715  0.49741639  1
  Fe  Fe14  1  0.54855133  0.94977017  0.19971341  1
  Fe  Fe15  1  0.22603322  0.51734567  0.90197438  1
  Fe  Fe16  1  0.57452458  0.67370904  0.30093257  1
  Fe  Fe17  1  0.74989151  0.75036462  0.00055650  1
  Fe  Fe18  1  0.41959916  0.32234063  0.71151536  1
  Fe  Fe19  1  0.59824493  0.39973752  0.40176448  1
  Fe  Fe20  1  0.77543795  0.47401983  0.09996884  1
  Fe  Fe21  1  0.62537318  0.12583233  0.49844329  1
  Fe  Fe22  1  0.80095685  0.20061509  0.19798629  1
  Fe  Fe23  1  0.10068936  0.90177097  0.39855647  1
  Fe  Fe24  1  0.27474840  0.98640682  0.09707962  1
  Fe  Fe25  1  0.12587046  0.62523754  0.50020253  1
  Fe  Fe26  1  0.29983936  0.69857649  0.19844322  1
  Fe  Fe27  1  0.15018727  0.35069997  0.59319842  1
  Fe  Fe28  1  0.32374720  0.41800442  0.28883636  1
  Fe  Fe29  1  0.50366001  0.50543739  0.99904877  1
  Fe  Fe30  1  0.17561862  0.07903890  0.71025010  1
  Fe  Fe31  1  0.35004419  0.14858541  0.41224181  1
  Fe  Fe32  1  0.02596046  0.72502966  0.09992123  1
  Fe  Fe33  1  0.04838489  0.45189298  0.20160122  1
  Fe  Fe34  1  0.08125013  0.17661975  0.29240898  1
  Fe  Fe35  1  0.99670608  0.99737879  0.00078396  1
  Fe  Fe36  1  0.39932119  0.59682011  0.60028803  1
  Fe  Fe37  1  0.45227894  0.04621948  0.79471138  1
  Cu  Cu38  1  0.51126936  0.22601396  0.09622582  1
