# generated using pymatgen
data_Fe38Ni
_symmetry_space_group_name_H-M   'P 1'
_cell_length_a   8.48852844
_cell_length_b   8.50389540
_cell_length_c   6.32032977
_cell_angle_alpha   89.89272581
_cell_angle_beta   90.12903707
_cell_angle_gamma   96.24585686
_symmetry_Int_Tables_number   1
_chemical_formula_structural   Fe38Ni
_chemical_formula_sum   'Fe38 Ni1'
_cell_volume   453.52664793
_cell_formula_units_Z   1
loop_
 _symmetry_equiv_pos_site_id
 _symmetry_equiv_pos_as_xyz
  1  'x, y, z'
loop_
 _atom_site_type_symbol
 _atom_site_label
 _atom_site_symmetry_multiplicity
 _atom_site_fract_x
 _atom_site_fract_y
 _atom_site_fract_z
 _atom_site_occupancy
  Fe  Fe0  1  0.92544064  0.82491466  0.69972887  1
  Fe  Fe1  1  0.95101725  0.54861820  0.80041569  1
  Fe  Fe2  1  0.98503762  0.27398624  0.90319266  1
  Fe  Fe3  1  0.47343835  0.77541659  0.90010468  1
  Fe  Fe4  1  0.64953706  0.85066083  0.60052715  1
  Fe  Fe5  1  0.82455543  0.92558360  0.30072235  1
  Fe  Fe6  1  0.67518828  0.57505050  0.70068143  1
  Fe  Fe7  1  0.84998811  0.64987929  0.39935015  1
  Fe  Fe8  1  0.69976436  0.30021296  0.79949855  1
  Fe  Fe9  1  0.87501688  0.37468980  0.49970227  1
  Fe  Fe10  1  0.72535377  0.02552495  0.89986424  1
  Fe  Fe11  1  0.90082561  0.10095449  0.60053807  1
  Fe  Fe12  1  0.20016846  0.80183248  0.80141035  1
  Fe  Fe13  1  0.37369033  0.87448313  0.49839650  1
  Fe  Fe14  1  0.54864251  0.94984813  0.20004231  1
  Fe  Fe15  1  0.22501721  0.51649356  0.90184983  1
  Fe  Fe16  1  0.57409153  0.67393831  0.30081569  1
  Fe  Fe17  1  0.74941741  0.75000321  0.00049162  1
  Fe  Fe18  1  0.41890974  0.32300264  0.70888040  1
  Fe  Fe19  1  0.59833398  0.39980468  0.40141126  1
  Fe  Fe20  1  0.77569193  0.47467421  0.09996912  1
  Fe  Fe21  1  0.62562793  0.12545188  0.50002789  1
  Fe  Fe22  1  0.80079301  0.20033803  0.19828599  1
  Fe  Fe23  1  0.10092715  0.90196348  0.39855099  1
  Fe  Fe24  1  0.27374072  0.98529212  0.09674916  1
  Fe  Fe25  1  0.12561577  0.62551422  0.50054659  1
  Fe  Fe26  1  0.29967837  0.69839380  0.19858308  1
  Fe  Fe27  1  0.14996563  0.35064816  0.59235885  1
  Fe  Fe28  1  0.32269963  0.41935125  0.28954899  1
  Fe  Fe29  1  0.50214031  0.50140718  0.00004338  1
  Fe  Fe30  1  0.17559806  0.07992387  0.70900586  1
  Fe  Fe31  1  0.35091998  0.14966582  0.40702543  1
  Fe  Fe32  1  0.02586940  0.72499877  0.09973118  1
  Fe  Fe33  1  0.04795318  0.45187451  0.20186291  1
  Fe  Fe34  1  0.08072210  0.17677500  0.29110828  1
  Fe  Fe35  1  0.99667725  0.99728626  0.00036180  1
  Fe  Fe36  1  0.39904794  0.59726272  0.60094521  1
  Fe  Fe37  1  0.45159503  0.04902715  0.79814942  1
  Ni  Ni38  1  0.52130210  0.22525330  0.09952178  1
