# generated using pymatgen
data_ZnFe19
_symmetry_space_group_name_H-M   'P 1'
_cell_length_a   8.53491682
_cell_length_b   8.54905014
_cell_length_c   6.35927574
_cell_angle_alpha   89.87023107
_cell_angle_beta   90.17429298
_cell_angle_gamma   96.43233894
_symmetry_Int_Tables_number   1
_chemical_formula_structural   ZnFe19
_chemical_formula_sum   'Zn2 Fe38'
_cell_volume   461.08330556
_cell_formula_units_Z   2
loop_
 _symmetry_equiv_pos_site_id
 _symmetry_equiv_pos_as_xyz
  1  'x, y, z'
loop_
 _atom_site_type_symbol
 _atom_site_label
 _atom_site_symmetry_multiplicity
 _atom_site_fract_x
 _atom_site_fract_y
 _atom_site_fract_z
 _atom_site_occupancy
  Fe  Fe0  1  0.92461923  0.82542716  0.70098965  1
  Fe  Fe1  1  0.94954549  0.55042442  0.79986361  1
  Fe  Fe2  1  0.96934250  0.27565564  0.89800426  1
  Fe  Fe3  1  0.47508053  0.77633350  0.89976711  1
  Fe  Fe4  1  0.65002455  0.85101873  0.60080568  1
  Fe  Fe5  1  0.82544555  0.92458485  0.30016486  1
  Fe  Fe6  1  0.67582933  0.57691520  0.70198537  1
  Fe  Fe7  1  0.85039599  0.64956787  0.39900574  1
  Fe  Fe8  1  0.69976336  0.30136707  0.79368303  1
  Fe  Fe9  1  0.87718200  0.37580018  0.49800397  1
  Fe  Fe10  1  0.72410297  0.02580634  0.90153541  1
  Fe  Fe11  1  0.89782780  0.09918734  0.60198070  1
  Fe  Fe12  1  0.19936638  0.80113093  0.79967443  1
  Fe  Fe13  1  0.37435381  0.87426965  0.49905599  1
  Fe  Fe14  1  0.54954073  0.94578423  0.20125646  1
  Fe  Fe15  1  0.22545450  0.52921375  0.89873611  1
  Fe  Fe16  1  0.57563418  0.67388645  0.30034418  1
  Fe  Fe17  1  0.75021247  0.75051920  0.00095206  1
  Fe  Fe18  1  0.42717114  0.32591735  0.69674875  1
  Fe  Fe19  1  0.60128928  0.40280806  0.40287455  1
  Fe  Fe20  1  0.77494769  0.47389335  0.09957928  1
  Fe  Fe21  1  0.62466218  0.12506967  0.49719205  1
  Fe  Fe22  1  0.80565023  0.19931281  0.20199888  1
  Fe  Fe23  1  0.09918551  0.89809050  0.39801092  1
  Fe  Fe24  1  0.27611844  0.97186428  0.10127942  1
  Fe  Fe25  1  0.12497608  0.62399472  0.49919077  1
  Fe  Fe26  1  0.29992850  0.69867248  0.20021157  1
  Fe  Fe27  1  0.15033301  0.34991958  0.60280147  1
  Fe  Fe28  1  0.32673651  0.42659138  0.30523858  1
  Fe  Fe29  1  0.49887528  0.50315032  0.99872009  1
  Fe  Fe30  1  0.17371272  0.07218663  0.69713937  1
  Fe  Fe31  1  0.34782996  0.14907000  0.40326298  1
  Fe  Fe32  1  0.02477893  0.72449847  0.09904826  1
  Fe  Fe33  1  0.05089776  0.44918903  0.19845964  1
  Fe  Fe34  1  0.07522624  0.17363010  0.30629941  1
  Fe  Fe35  1  0.00004662  0.00109918  0.00042207  1
  Fe  Fe36  1  0.40064432  0.60074264  0.60094364  1
  Fe  Fe37  1  0.44826135  0.04840335  0.79476542  1
  Zn  Zn38  1  0.52848246  0.22432205  0.10094580  1
  Zn  Zn39  1  0.24652444  0.25068155  0.99905848  1
