# generated using pymatgen
data_Fe38Co
_symmetry_space_group_name_H-M   'P 1'
_cell_length_a   8.48758168
_cell_length_b   8.48930186
_cell_length_c   6.32032570
_cell_angle_alpha   89.92828715
_cell_angle_beta   90.09500859
_cell_angle_gamma   96.41625236
_symmetry_Int_Tables_number   1
_chemical_formula_structural   Fe38Co
_chemical_formula_sum   'Fe38 Co1'
_cell_volume   452.54908559
_cell_formula_units_Z   1
loop_
 _symmetry_equiv_pos_site_id
 _symmetry_equiv_pos_as_xyz
  1  'x, y, z'
loop_
 _atom_site_type_symbol
 _atom_site_label
 _atom_site_symmetry_multiplicity
 _atom_site_fract_x
 _atom_site_fract_y
 _atom_site_fract_z
 _atom_site_occupancy
  Fe  Fe0  1  0.92575773  0.82514581  0.69992271  1
  Fe  Fe1  1  0.95101000  0.54898251  0.80023721  1
  Fe  Fe2  1  0.98517148  0.27434467  0.90325532  1
  Fe  Fe3  1  0.47369769  0.77465180  0.90006949  1
  Fe  Fe4  1  0.64973246  0.84987966  0.60042352  1
  Fe  Fe5  1  0.82481216  0.92573910  0.30076893  1
  Fe  Fe6  1  0.67476677  0.57426344  0.70008094  1
  Fe  Fe7  1  0.84983014  0.65011387  0.39976409  1
  Fe  Fe8  1  0.69884777  0.29960210  0.80116592  1
  Fe  Fe9  1  0.87448047  0.37461724  0.50034566  1
  Fe  Fe10  1  0.72591771  0.02500835  0.89954613  1
  Fe  Fe11  1  0.90165781  0.10110624  0.60057064  1
  Fe  Fe12  1  0.20052863  0.80190993  0.80133880  1
  Fe  Fe13  1  0.37413783  0.87460756  0.49879835  1
  Fe  Fe14  1  0.54878369  0.95088236  0.19957848  1
  Fe  Fe15  1  0.22514772  0.51621271  0.90186472  1
  Fe  Fe16  1  0.57389376  0.67404042  0.30039512  1
  Fe  Fe17  1  0.74956320  0.74975534  0.00031208  1
  Fe  Fe18  1  0.41807724  0.32250837  0.70924003  1
  Fe  Fe19  1  0.59785275  0.39877076  0.39960833  1
  Fe  Fe20  1  0.77551529  0.47501539  0.09983748  1
  Fe  Fe21  1  0.62576151  0.12500916  0.50073216  1
  Fe  Fe22  1  0.79945779  0.20051665  0.19821287  1
  Fe  Fe23  1  0.10107723  0.90238481  0.39928099  1
  Fe  Fe24  1  0.27358474  0.98567838  0.09687916  1
  Fe  Fe25  1  0.12554165  0.62578994  0.50059014  1
  Fe  Fe26  1  0.29968789  0.69868706  0.19845418  1
  Fe  Fe27  1  0.14936317  0.35091149  0.59218266  1
  Fe  Fe28  1  0.32153189  0.41884598  0.28849279  1
  Fe  Fe29  1  0.50235047  0.49980115  0.00047502  1
  Fe  Fe30  1  0.17663985  0.08079049  0.70942210  1
  Fe  Fe31  1  0.35210743  0.14975871  0.40539085  1
  Fe  Fe32  1  0.02595555  0.72561227  0.09994996  1
  Fe  Fe33  1  0.04743926  0.45240738  0.20191947  1
  Fe  Fe34  1  0.08033197  0.17731800  0.29070885  1
  Fe  Fe35  1  0.99725169  0.99777055  0.00053611  1
  Fe  Fe36  1  0.39899685  0.59733808  0.60047175  1
  Fe  Fe37  1  0.45272297  0.04922451  0.80003381  1
  Co  Co38  1  0.52101581  0.22499779  0.09914318  1
