# generated using pymatgen
data_Fe19Cu
_symmetry_space_group_name_H-M   'P 1'
_cell_length_a   8.50965184
_cell_length_b   8.54422658
_cell_length_c   6.35028171
_cell_angle_alpha   89.71265646
_cell_angle_beta   90.33470557
_cell_angle_gamma   96.50161483
_symmetry_Int_Tables_number   1
_chemical_formula_structural   Fe19Cu
_chemical_formula_sum   'Fe38 Cu2'
_cell_volume   458.73708069
_cell_formula_units_Z   2
loop_
 _symmetry_equiv_pos_site_id
 _symmetry_equiv_pos_as_xyz
  1  'x, y, z'
loop_
 _atom_site_type_symbol
 _atom_site_label
 _atom_site_symmetry_multiplicity
 _atom_site_fract_x
 _atom_site_fract_y
 _atom_site_fract_z
 _atom_site_occupancy
  Fe  Fe0  1  0.92476202  0.82530618  0.70097041  1
  Fe  Fe1  1  0.94983038  0.55006966  0.80011157  1
  Fe  Fe2  1  0.97221578  0.27531378  0.89954457  1
  Fe  Fe3  1  0.47489281  0.77676392  0.89991395  1
  Fe  Fe4  1  0.64982691  0.85095214  0.60051441  1
  Fe  Fe5  1  0.82516365  0.92492918  0.29988855  1
  Fe  Fe6  1  0.67547480  0.57637858  0.70198379  1
  Fe  Fe7  1  0.85023695  0.64969077  0.39904118  1
  Fe  Fe8  1  0.70024070  0.30104829  0.79502196  1
  Fe  Fe9  1  0.87686647  0.37549648  0.49812821  1
  Fe  Fe10  1  0.72430970  0.02575791  0.90098769  1
  Fe  Fe11  1  0.89813592  0.09950439  0.60185813  1
  Fe  Fe12  1  0.19989971  0.80143747  0.79985557  1
  Fe  Fe13  1  0.37432902  0.87468654  0.49839892  1
  Fe  Fe14  1  0.55011187  0.94669078  0.20127184  1
  Fe  Fe15  1  0.22488349  0.52830729  0.89873543  1
  Fe  Fe16  1  0.57510173  0.67356336  0.30014507  1
  Fe  Fe17  1  0.74990399  0.75043141  0.00076374  1
  Fe  Fe18  1  0.42722735  0.32562610  0.69735282  1
  Fe  Fe19  1  0.60158145  0.40226222  0.40209715  1
  Fe  Fe20  1  0.77490165  0.47416926  0.09937893  1
  Fe  Fe21  1  0.62402049  0.12514619  0.49831423  1
  Fe  Fe22  1  0.80278901  0.19968433  0.20046780  1
  Fe  Fe23  1  0.09952214  0.89861857  0.39803204  1
  Fe  Fe24  1  0.27652349  0.97312303  0.10106313  1
  Fe  Fe25  1  0.12517304  0.62405050  0.49948298  1
  Fe  Fe26  1  0.30010636  0.69823759  0.20009237  1
  Fe  Fe27  1  0.15097539  0.34985430  0.60167013  1
  Fe  Fe28  1  0.32688130  0.42566568  0.30350454  1
  Fe  Fe29  1  0.49846680  0.50188093  0.99893118  1
  Fe  Fe30  1  0.17342053  0.07273701  0.69790927  1
  Fe  Fe31  1  0.34777743  0.14937093  0.40264775  1
  Fe  Fe32  1  0.02509240  0.72457588  0.09923328  1
  Fe  Fe33  1  0.05069092  0.44923742  0.19902051  1
  Fe  Fe34  1  0.07476321  0.17394317  0.30497226  1
  Fe  Fe35  1  0.00010029  0.00083445  0.00061520  1
  Fe  Fe36  1  0.40067594  0.60031814  0.60158974  1
  Fe  Fe37  1  0.44812153  0.04933919  0.79649117  1
  Cu  Cu38  1  0.52616116  0.22465569  0.10037467  1
  Cu  Cu39  1  0.24884221  0.25034128  0.99962387  1
