# generated using pymatgen
data_TiFe38
_symmetry_space_group_name_H-M   'P 1'
_cell_length_a   8.47515565
_cell_length_b   8.52092682
_cell_length_c   6.33811011
_cell_angle_alpha   89.91325839
_cell_angle_beta   90.21214586
_cell_angle_gamma   96.16772680
_symmetry_Int_Tables_number   1
_chemical_formula_structural   TiFe38
_chemical_formula_sum   'Ti1 Fe38'
_cell_volume   455.06128685
_cell_formula_units_Z   1
loop_
 _symmetry_equiv_pos_site_id
 _symmetry_equiv_pos_as_xyz
  1  'x, y, z'
loop_
 _atom_site_type_symbol
 _atom_site_label
 _atom_site_symmetry_multiplicity
 _atom_site_fract_x
 _atom_site_fract_y
 _atom_site_fract_z
 _atom_site_occupancy
  Fe  Fe0  1  0.92573592  0.82524481  0.70025885  1
  Fe  Fe1  1  0.95188140  0.54847134  0.80036704  1
  Fe  Fe2  1  0.98425260  0.27381031  0.90277053  1
  Fe  Fe3  1  0.47422364  0.77569464  0.89962570  1
  Fe  Fe4  1  0.65067546  0.85051198  0.60044908  1
  Fe  Fe5  1  0.82508953  0.92608726  0.30096445  1
  Fe  Fe6  1  0.67642865  0.57569316  0.70005331  1
  Fe  Fe7  1  0.85046774  0.65019502  0.39956886  1
  Fe  Fe8  1  0.70124871  0.30074643  0.79761153  1
  Fe  Fe9  1  0.87586087  0.37443075  0.49928098  1
  Fe  Fe10  1  0.72479417  0.02636403  0.90001876  1
  Fe  Fe11  1  0.90219706  0.10102399  0.60063402  1
  Fe  Fe12  1  0.19971020  0.79994779  0.80110021  1
  Fe  Fe13  1  0.37369689  0.87328025  0.49852114  1
  Fe  Fe14  1  0.54906281  0.94853910  0.20061219  1
  Fe  Fe15  1  0.22717866  0.51358446  0.90363824  1
  Fe  Fe16  1  0.57483742  0.67499648  0.30125634  1
  Fe  Fe17  1  0.75057591  0.75071946  0.00104364  1
  Fe  Fe18  1  0.42188199  0.32511819  0.70295912  1
  Fe  Fe19  1  0.59960163  0.40095012  0.40141362  1
  Fe  Fe20  1  0.77486490  0.47399598  0.09952718  1
  Fe  Fe21  1  0.62575907  0.12574688  0.49808334  1
  Fe  Fe22  1  0.80216626  0.20022643  0.19874311  1
  Fe  Fe23  1  0.10002569  0.90138667  0.40051745  1
  Fe  Fe24  1  0.27243516  0.97825188  0.09861071  1
  Fe  Fe25  1  0.12563474  0.62521481  0.50101733  1
  Fe  Fe26  1  0.29944273  0.69818260  0.19839012  1
  Fe  Fe27  1  0.15010979  0.35072458  0.59398594  1
  Fe  Fe28  1  0.32251748  0.42317725  0.29548908  1
  Fe  Fe29  1  0.50320372  0.50755623  0.99812040  1
  Fe  Fe30  1  0.17758134  0.08118876  0.71411847  1
  Fe  Fe31  1  0.34834899  0.14754025  0.41237919  1
  Fe  Fe32  1  0.02564055  0.72428502  0.10002990  1
  Fe  Fe33  1  0.04835529  0.45182701  0.20131474  1
  Fe  Fe34  1  0.08336575  0.17751067  0.28942376  1
  Fe  Fe35  1  0.99667503  0.99672086  0.00155610  1
  Fe  Fe36  1  0.39979956  0.59895560  0.60130601  1
  Fe  Fe37  1  0.45143457  0.04519830  0.79268568  1
  Ti  Ti38  1  0.50323809  0.22690063  0.09255383  1
