# generated using pymatgen
data_MnFe19
_symmetry_space_group_name_H-M   'P 1'
_cell_length_a   8.49160521
_cell_length_b   8.49895311
_cell_length_c   6.32887603
_cell_angle_alpha   89.88545153
_cell_angle_beta   90.13115489
_cell_angle_gamma   96.23656644
_symmetry_Int_Tables_number   1
_chemical_formula_structural   MnFe19
_chemical_formula_sum   'Mn2 Fe38'
_cell_volume   454.04839432
_cell_formula_units_Z   2
loop_
 _symmetry_equiv_pos_site_id
 _symmetry_equiv_pos_as_xyz
  1  'x, y, z'
loop_
 _atom_site_type_symbol
 _atom_site_label
 _atom_site_symmetry_multiplicity
 _atom_site_fract_x
 _atom_site_fract_y
 _atom_site_fract_z
 _atom_site_occupancy
  Fe  Fe0  1  0.92494528  0.82547546  0.70044639  1
  Fe  Fe1  1  0.94984058  0.54957513  0.80005707  1
  Fe  Fe2  1  0.97627683  0.27474935  0.90067454  1
  Fe  Fe3  1  0.47516320  0.77523596  0.90040232  1
  Fe  Fe4  1  0.64981777  0.85098406  0.59988769  1
  Fe  Fe5  1  0.82517643  0.92544966  0.29999416  1
  Fe  Fe6  1  0.67475300  0.57483719  0.69985964  1
  Fe  Fe7  1  0.85008995  0.64952363  0.39957103  1
  Fe  Fe8  1  0.69836127  0.29932146  0.80104500  1
  Fe  Fe9  1  0.87556522  0.37464773  0.49989428  1
  Fe  Fe10  1  0.72433798  0.02548271  0.90046624  1
  Fe  Fe11  1  0.89940910  0.10036131  0.60009277  1
  Fe  Fe12  1  0.20005464  0.80000397  0.80016928  1
  Fe  Fe13  1  0.37519755  0.87546851  0.50002504  1
  Fe  Fe14  1  0.54969280  0.95216057  0.19947164  1
  Fe  Fe15  1  0.22532199  0.52282901  0.90045416  1
  Fe  Fe16  1  0.57494961  0.67498294  0.29985313  1
  Fe  Fe17  1  0.74994156  0.75048720  0.00043805  1
  Fe  Fe18  1  0.42420466  0.32506881  0.69947051  1
  Fe  Fe19  1  0.59932054  0.39838667  0.39839442  1
  Fe  Fe20  1  0.77466129  0.47453193  0.09940472  1
  Fe  Fe21  1  0.62427333  0.12524260  0.49952628  1
  Fe  Fe22  1  0.79869030  0.20026128  0.19928487  1
  Fe  Fe23  1  0.10029075  0.90013743  0.40016130  1
  Fe  Fe24  1  0.27470907  0.97531912  0.09976530  1
  Fe  Fe25  1  0.12521286  0.62405752  0.50008606  1
  Fe  Fe26  1  0.29984488  0.69974370  0.19952739  1
  Fe  Fe27  1  0.15076286  0.34975778  0.60048763  1
  Fe  Fe28  1  0.32468892  0.42436764  0.30019682  1
  Fe  Fe29  1  0.50027165  0.49969851  0.00026284  1
  Fe  Fe30  1  0.17571367  0.07658735  0.70166086  1
  Fe  Fe31  1  0.35080109  0.14989885  0.40058292  1
  Fe  Fe32  1  0.02507026  0.72452585  0.09965200  1
  Fe  Fe33  1  0.05067522  0.44952558  0.19942634  1
  Fe  Fe34  1  0.07662773  0.17569249  0.29893098  1
  Fe  Fe35  1  0.00033521  0.00049127  0.00066669  1
  Fe  Fe36  1  0.39980388  0.59947881  0.59997534  1
  Fe  Fe37  1  0.45030734  0.05062527  0.79977468  1
  Mn  Mn38  1  0.51733097  0.22572328  0.09708882  1
  Mn  Mn39  1  0.25750875  0.24930234  0.00287083  1
