# generated using pymatgen
data_Fe9Co
_symmetry_space_group_name_H-M   'P 1'
_cell_length_a   8.53310803
_cell_length_b   8.52560991
_cell_length_c   6.34773916
_cell_angle_alpha   89.88114443
_cell_angle_beta   90.14137778
_cell_angle_gamma   96.38926200
_symmetry_Int_Tables_number   1
_chemical_formula_structural   Fe9Co
_chemical_formula_sum   'Fe36 Co4'
_cell_volume   458.92723824
_cell_formula_units_Z   4
loop_
 _symmetry_equiv_pos_site_id
 _symmetry_equiv_pos_as_xyz
  1  'x, y, z'
loop_
 _atom_site_type_symbol
 _atom_site_label
 _atom_site_symmetry_multiplicity
 _atom_site_fract_x
 _atom_site_fract_y
 _atom_site_fract_z
 _atom_site_occupancy
  Fe  Fe0  1  0.92501370  0.82511550  0.70010381  1
  Fe  Fe1  1  0.95034321  0.54977727  0.80002880  1
  Fe  Fe2  1  0.97570679  0.27477987  0.90014511  1
  Fe  Fe3  1  0.47452560  0.77550570  0.89939740  1
  Fe  Fe4  1  0.65053611  0.85040791  0.59982588  1
  Fe  Fe5  1  0.82462755  0.92518601  0.30009583  1
  Fe  Fe6  1  0.67406263  0.57507777  0.70037776  1
  Fe  Fe7  1  0.84944146  0.64988251  0.39984615  1
  Fe  Fe8  1  0.69915093  0.30025650  0.80086926  1
  Fe  Fe9  1  0.87515390  0.37506388  0.49993964  1
  Fe  Fe10  1  0.72407646  0.02477810  0.89930445  1
  Fe  Fe11  1  0.89920909  0.10017069  0.60033014  1
  Fe  Fe12  1  0.19936499  0.80043554  0.80046910  1
  Fe  Fe13  1  0.37502056  0.87530246  0.50041862  1
  Fe  Fe14  1  0.55011682  0.95089037  0.20088438  1
  Fe  Fe15  1  0.22563863  0.52449714  0.89945929  1
  Fe  Fe16  1  0.57429684  0.67464879  0.30032162  1
  Fe  Fe17  1  0.74981316  0.75010835  0.99988507  1
  Fe  Fe18  1  0.42424544  0.32459479  0.70012248  1
  Fe  Fe19  1  0.60011161  0.39901880  0.39906661  1
  Fe  Fe20  1  0.77512227  0.47536054  0.09949005  1
  Fe  Fe21  1  0.62409490  0.12463825  0.50147948  1
  Fe  Fe22  1  0.79959148  0.20014756  0.19929533  1
  Fe  Fe23  1  0.10014223  0.89995225  0.39978622  1
  Fe  Fe24  1  0.27544184  0.97570949  0.09894061  1
  Fe  Fe25  1  0.12579701  0.62484634  0.50026674  1
  Fe  Fe26  1  0.30016466  0.69964085  0.19867722  1
  Fe  Fe27  1  0.15004124  0.34963047  0.59907597  1
  Fe  Fe28  1  0.32458873  0.42479196  0.30000441  1
  Fe  Fe29  1  0.50061786  0.49875502  0.00116557  1
  Fe  Fe30  1  0.17577096  0.07535525  0.70078481  1
  Fe  Fe31  1  0.35068352  0.15073434  0.39927895  1
  Fe  Fe32  1  0.02572602  0.72504929  0.09977955  1
  Fe  Fe33  1  0.04983505  0.45006789  0.20062251  1
  Fe  Fe34  1  0.07620863  0.17502791  0.29976705  1
  Fe  Fe35  1  0.00002265  0.99972928  0.00014879  1
  Co  Co36  1  0.40010547  0.59990305  0.60045050  1
  Co  Co37  1  0.45003057  0.04978891  0.79980086  1
  Co  Co38  1  0.52527442  0.22515300  0.10041292  1
  Co  Co39  1  0.25028502  0.25022039  0.99988104  1
