# generated using pymatgen
data_CrFe9
_symmetry_space_group_name_H-M   'P 1'
_cell_length_a   8.51994745
_cell_length_b   8.52830883
_cell_length_c   6.35002192
_cell_angle_alpha   89.87477005
_cell_angle_beta   90.10779426
_cell_angle_gamma   96.58108582
_symmetry_Int_Tables_number   1
_chemical_formula_structural   CrFe9
_chemical_formula_sum   'Cr4 Fe36'
_cell_volume   458.35529240
_cell_formula_units_Z   4
loop_
 _symmetry_equiv_pos_site_id
 _symmetry_equiv_pos_as_xyz
  1  'x, y, z'
loop_
 _atom_site_type_symbol
 _atom_site_label
 _atom_site_symmetry_multiplicity
 _atom_site_fract_x
 _atom_site_fract_y
 _atom_site_fract_z
 _atom_site_occupancy
  Fe  Fe0  1  0.92517102  0.82544221  0.70017516  1
  Fe  Fe1  1  0.95009472  0.55000040  0.80034622  1
  Fe  Fe2  1  0.97557479  0.27486812  0.89961296  1
  Fe  Fe3  1  0.47481014  0.77500876  0.90106072  1
  Fe  Fe4  1  0.64999511  0.85041686  0.59980156  1
  Fe  Fe5  1  0.82394375  0.92530154  0.29981759  1
  Fe  Fe6  1  0.67377501  0.57469211  0.70046780  1
  Fe  Fe7  1  0.84945707  0.64984081  0.39995022  1
  Fe  Fe8  1  0.69849551  0.29958245  0.80069645  1
  Fe  Fe9  1  0.87512001  0.37479172  0.50101611  1
  Fe  Fe10  1  0.72404849  0.02484941  0.89957502  1
  Fe  Fe11  1  0.89956365  0.09989164  0.60032273  1
  Fe  Fe12  1  0.20000926  0.80092305  0.79999967  1
  Fe  Fe13  1  0.37501152  0.87587063  0.49930296  1
  Fe  Fe14  1  0.54968106  0.95139808  0.20019250  1
  Fe  Fe15  1  0.22584662  0.52477068  0.90062959  1
  Fe  Fe16  1  0.57384925  0.67502212  0.29963077  1
  Fe  Fe17  1  0.74985032  0.75003891  0.99984580  1
  Fe  Fe18  1  0.42433059  0.32419759  0.69930027  1
  Fe  Fe19  1  0.59979774  0.39972106  0.39976337  1
  Fe  Fe20  1  0.77435365  0.47487781  0.09946514  1
  Fe  Fe21  1  0.62397788  0.12535200  0.50083902  1
  Fe  Fe22  1  0.80024580  0.20010532  0.19979993  1
  Fe  Fe23  1  0.10011363  0.90038026  0.39991104  1
  Fe  Fe24  1  0.27608056  0.97507849  0.09920630  1
  Fe  Fe25  1  0.12567487  0.62435293  0.50081895  1
  Fe  Fe26  1  0.29982976  0.69968444  0.19950657  1
  Fe  Fe27  1  0.15060933  0.34978918  0.59997210  1
  Fe  Fe28  1  0.32472306  0.42423796  0.29967430  1
  Fe  Fe29  1  0.49973056  0.49855441  0.00087467  1
  Fe  Fe30  1  0.17708557  0.07625585  0.70123186  1
  Fe  Fe31  1  0.35027068  0.15044157  0.39857311  1
  Fe  Fe32  1  0.02626240  0.72505858  0.09935341  1
  Fe  Fe33  1  0.04993175  0.45000488  0.19996036  1
  Fe  Fe34  1  0.07633849  0.17560165  0.30049817  1
  Fe  Fe35  1  0.00039180  0.99991157  0.00004567  1
  Cr  Cr36  1  0.40045610  0.60163799  0.60068485  1
  Cr  Cr37  1  0.45075634  0.04805487  0.79972836  1
  Cr  Cr38  1  0.52441853  0.22495255  0.09937864  1
  Cr  Cr39  1  0.25032358  0.24903950  0.99897011  1
