# generated using pymatgen
data_VFe9
_symmetry_space_group_name_H-M   'P 1'
_cell_length_a   8.56003383
_cell_length_b   8.55213056
_cell_length_c   6.37117545
_cell_angle_alpha   89.74899866
_cell_angle_beta   90.06310079
_cell_angle_gamma   96.53940400
_symmetry_Int_Tables_number   1
_chemical_formula_structural   VFe9
_chemical_formula_sum   'V4 Fe36'
_cell_volume   463.37251272
_cell_formula_units_Z   4
loop_
 _symmetry_equiv_pos_site_id
 _symmetry_equiv_pos_as_xyz
  1  'x, y, z'
loop_
 _atom_site_type_symbol
 _atom_site_label
 _atom_site_symmetry_multiplicity
 _atom_site_fract_x
 _atom_site_fract_y
 _atom_site_fract_z
 _atom_site_occupancy
  Fe  Fe0  1  0.92509620  0.82516080  0.69972514  1
  Fe  Fe1  1  0.95042924  0.55046235  0.80000457  1
  Fe  Fe2  1  0.97316930  0.27545312  0.89863043  1
  Fe  Fe3  1  0.47530152  0.77392072  0.90124229  1
  Fe  Fe4  1  0.65126832  0.84969217  0.59932280  1
  Fe  Fe5  1  0.82415949  0.92476801  0.30015645  1
  Fe  Fe6  1  0.67517098  0.57496306  0.70183964  1
  Fe  Fe7  1  0.84953083  0.65011369  0.40005613  1
  Fe  Fe8  1  0.69929784  0.29973982  0.79929186  1
  Fe  Fe9  1  0.87534980  0.37509842  0.50044469  1
  Fe  Fe10  1  0.72554273  0.02449063  0.90059555  1
  Fe  Fe11  1  0.89916669  0.09957676  0.60076162  1
  Fe  Fe12  1  0.19874974  0.80077437  0.80000090  1
  Fe  Fe13  1  0.37442819  0.87469736  0.49674809  1
  Fe  Fe14  1  0.55041491  0.95016662  0.20027626  1
  Fe  Fe15  1  0.22450024  0.52615920  0.90036642  1
  Fe  Fe16  1  0.57448440  0.67467500  0.29862473  1
  Fe  Fe17  1  0.75044696  0.75050720  0.00009956  1
  Fe  Fe18  1  0.42511538  0.32177430  0.70163895  1
  Fe  Fe19  1  0.60141738  0.40068077  0.40278340  1
  Fe  Fe20  1  0.77587846  0.47654232  0.09946778  1
  Fe  Fe21  1  0.62631504  0.12478500  0.50104394  1
  Fe  Fe22  1  0.80276391  0.20009221  0.20032028  1
  Fe  Fe23  1  0.09999378  0.89974500  0.39883202  1
  Fe  Fe24  1  0.27733242  0.97699084  0.09920634  1
  Fe  Fe25  1  0.12447507  0.62471414  0.49959241  1
  Fe  Fe26  1  0.29946095  0.70007781  0.19823679  1
  Fe  Fe27  1  0.14945514  0.34997988  0.59874406  1
  Fe  Fe28  1  0.32394728  0.42485944  0.30012549  1
  Fe  Fe29  1  0.49964523  0.49912349  0.00165928  1
  Fe  Fe30  1  0.17392676  0.07504272  0.69863497  1
  Fe  Fe31  1  0.34900067  0.15079540  0.39836962  1
  Fe  Fe32  1  0.02581335  0.72522462  0.09926550  1
  Fe  Fe33  1  0.04896669  0.45095822  0.20061948  1
  Fe  Fe34  1  0.07490489  0.17497974  0.30235471  1
  Fe  Fe35  1  0.99992465  0.99921104  0.00086725  1
  V  V36  1  0.40002384  0.60041718  0.60076891  1
  V  V37  1  0.44921578  0.04350481  0.79168947  1
  V  V38  1  0.53460350  0.22866519  0.11032624  1
  V  V39  1  0.24131245  0.25141656  0.99726597  1
