# generated using pymatgen
data_ScFe9
_symmetry_space_group_name_H-M   'P 1'
_cell_length_a   8.70989988
_cell_length_b   8.66433237
_cell_length_c   6.50905706
_cell_angle_alpha   90.21240329
_cell_angle_beta   89.57639602
_cell_angle_gamma   96.59066788
_symmetry_Int_Tables_number   1
_chemical_formula_structural   ScFe9
_chemical_formula_sum   'Sc4 Fe36'
_cell_volume   487.94750972
_cell_formula_units_Z   4
loop_
 _symmetry_equiv_pos_site_id
 _symmetry_equiv_pos_as_xyz
  1  'x, y, z'
loop_
 _atom_site_type_symbol
 _atom_site_label
 _atom_site_symmetry_multiplicity
 _atom_site_fract_x
 _atom_site_fract_y
 _atom_site_fract_z
 _atom_site_occupancy
  Fe  Fe0  1  0.92351651  0.82432785  0.70010089  1
  Fe  Fe1  1  0.95083173  0.55204631  0.79986637  1
  Fe  Fe2  1  0.96085178  0.27803447  0.89155340  1
  Fe  Fe3  1  0.48179474  0.77049092  0.92022619  1
  Fe  Fe4  1  0.65428311  0.84983811  0.59958419  1
  Fe  Fe5  1  0.82536723  0.92307636  0.30077544  1
  Fe  Fe6  1  0.68705919  0.57739497  0.70722704  1
  Fe  Fe7  1  0.84962686  0.65144417  0.39965477  1
  Fe  Fe8  1  0.70448035  0.30173674  0.78599792  1
  Fe  Fe9  1  0.87757160  0.37702421  0.49902312  1
  Fe  Fe10  1  0.73613250  0.02284133  0.90676266  1
  Fe  Fe11  1  0.89612892  0.09825067  0.60093950  1
  Fe  Fe12  1  0.19485892  0.80019029  0.79994738  1
  Fe  Fe13  1  0.36679580  0.87680210  0.47571531  1
  Fe  Fe14  1  0.55364227  0.94108650  0.20373696  1
  Fe  Fe15  1  0.21320940  0.53466869  0.90713025  1
  Fe  Fe16  1  0.58352036  0.67650032  0.29108543  1
  Fe  Fe17  1  0.75502884  0.75112342  0.00087583  1
  Fe  Fe18  1  0.43434385  0.32539533  0.68991640  1
  Fe  Fe19  1  0.60870645  0.41175283  0.41315320  1
  Fe  Fe20  1  0.77891482  0.47829741  0.09943674  1
  Fe  Fe21  1  0.63555946  0.12705077  0.48995717  1
  Fe  Fe22  1  0.81713671  0.19916032  0.20484149  1
  Fe  Fe23  1  0.09404033  0.89653623  0.39813957  1
  Fe  Fe24  1  0.26856367  0.96288111  0.11209233  1
  Fe  Fe25  1  0.11288503  0.62557813  0.49601076  1
  Fe  Fe26  1  0.29689439  0.69616353  0.20006113  1
  Fe  Fe27  1  0.14759512  0.35196355  0.59832462  1
  Fe  Fe28  1  0.32430767  0.42549107  0.30064598  1
  Fe  Fe29  1  0.49904426  0.50704565  0.99896625  1
  Fe  Fe30  1  0.15785898  0.06776195  0.68574809  1
  Fe  Fe31  1  0.34096592  0.15005883  0.40758876  1
  Fe  Fe32  1  0.02276671  0.72416536  0.09983129  1
  Fe  Fe33  1  0.04810514  0.45108285  0.20203163  1
  Fe  Fe34  1  0.06994678  0.17148401  0.31332873  1
  Fe  Fe35  1  0.00016947  0.99692519  0.00119458  1
  Sc  Sc36  1  0.39909517  0.60409393  0.60336147  1
  Sc  Sc37  1  0.44878381  0.03587687  0.78401611  1
  Sc  Sc38  1  0.54396515  0.23164862  0.11752115  1
  Sc  Sc39  1  0.23565103  0.25270901  0.99362988  1
