# generated using pymatgen
data_VFe38
_symmetry_space_group_name_H-M   'P 1'
_cell_length_a   8.48186147
_cell_length_b   8.50209379
_cell_length_c   6.32236927
_cell_angle_alpha   89.91516043
_cell_angle_beta   90.14287608
_cell_angle_gamma   96.20253949
_symmetry_Int_Tables_number   1
_chemical_formula_structural   VFe38
_chemical_formula_sum   'V1 Fe38'
_cell_volume   453.25802111
_cell_formula_units_Z   1
loop_
 _symmetry_equiv_pos_site_id
 _symmetry_equiv_pos_as_xyz
  1  'x, y, z'
loop_
 _atom_site_type_symbol
 _atom_site_label
 _atom_site_symmetry_multiplicity
 _atom_site_fract_x
 _atom_site_fract_y
 _atom_site_fract_z
 _atom_site_occupancy
  Fe  Fe0  1  0.92553748  0.82509682  0.69978171  1
  Fe  Fe1  1  0.95144042  0.54860597  0.80014979  1
  Fe  Fe2  1  0.98414420  0.27388259  0.90282579  1
  Fe  Fe3  1  0.47379961  0.77541055  0.89994389  1
  Fe  Fe4  1  0.64980860  0.85058587  0.60073286  1
  Fe  Fe5  1  0.82462753  0.92586859  0.30106253  1
  Fe  Fe6  1  0.67538425  0.57501283  0.70037224  1
  Fe  Fe7  1  0.85024831  0.64992932  0.39959032  1
  Fe  Fe8  1  0.69972473  0.30022778  0.79985864  1
  Fe  Fe9  1  0.87503395  0.37426173  0.49968134  1
  Fe  Fe10  1  0.72530788  0.02550744  0.89955990  1
  Fe  Fe11  1  0.90169142  0.10098296  0.60046397  1
  Fe  Fe12  1  0.20016513  0.80117243  0.80104900  1
  Fe  Fe13  1  0.37398339  0.87439112  0.49868014  1
  Fe  Fe14  1  0.54888072  0.95039317  0.19997209  1
  Fe  Fe15  1  0.22618474  0.51466096  0.90271112  1
  Fe  Fe16  1  0.57428641  0.67440022  0.30091916  1
  Fe  Fe17  1  0.74981627  0.75022005  0.00104428  1
  Fe  Fe18  1  0.42002189  0.32388963  0.70544305  1
  Fe  Fe19  1  0.59866048  0.39924690  0.40058668  1
  Fe  Fe20  1  0.77550519  0.47474401  0.09976499  1
  Fe  Fe21  1  0.62564793  0.12525604  0.50059692  1
  Fe  Fe22  1  0.79984689  0.20022566  0.19849150  1
  Fe  Fe23  1  0.10084648  0.90188697  0.39957334  1
  Fe  Fe24  1  0.27286843  0.98214625  0.09743507  1
  Fe  Fe25  1  0.12574596  0.62537481  0.50079546  1
  Fe  Fe26  1  0.29981762  0.69845971  0.19809147  1
  Fe  Fe27  1  0.15016077  0.35050322  0.59327021  1
  Fe  Fe28  1  0.32213703  0.42126360  0.29231424  1
  Fe  Fe29  1  0.50220058  0.50145696  0.99998770  1
  Fe  Fe30  1  0.17687545  0.08105094  0.71099842  1
  Fe  Fe31  1  0.35133958  0.14946557  0.40598269  1
  Fe  Fe32  1  0.02586933  0.72477807  0.09982701  1
  Fe  Fe33  1  0.04837463  0.45168905  0.20116498  1
  Fe  Fe34  1  0.08157748  0.17725296  0.28998554  1
  Fe  Fe35  1  0.99685086  0.99724368  0.00111247  1
  Fe  Fe36  1  0.39941636  0.59782630  0.60116638  1
  Fe  Fe37  1  0.45165696  0.04942139  0.79843120  1
  V  V38  1  0.51451509  0.22620789  0.09658186  1
