# generated using pymatgen
data_ScFe38
_symmetry_space_group_name_H-M   'P 1'
_cell_length_a   8.45650957
_cell_length_b   8.56102935
_cell_length_c   6.36898976
_cell_angle_alpha   89.92119186
_cell_angle_beta   90.40065830
_cell_angle_gamma   96.07241389
_symmetry_Int_Tables_number   1
_chemical_formula_structural   ScFe38
_chemical_formula_sum   'Sc1 Fe38'
_cell_volume   458.49360417
_cell_formula_units_Z   1
loop_
 _symmetry_equiv_pos_site_id
 _symmetry_equiv_pos_as_xyz
  1  'x, y, z'
loop_
 _atom_site_type_symbol
 _atom_site_label
 _atom_site_symmetry_multiplicity
 _atom_site_fract_x
 _atom_site_fract_y
 _atom_site_fract_z
 _atom_site_occupancy
  Fe  Fe0  1  0.92639805  0.82563036  0.70097013  1
  Fe  Fe1  1  0.95285028  0.54806563  0.80101167  1
  Fe  Fe2  1  0.98506410  0.27333413  0.90411019  1
  Fe  Fe3  1  0.47511402  0.77614781  0.89959430  1
  Fe  Fe4  1  0.65236140  0.85063468  0.59964888  1
  Fe  Fe5  1  0.82592157  0.92666368  0.30066176  1
  Fe  Fe6  1  0.67866739  0.57702312  0.69943698  1
  Fe  Fe7  1  0.85140620  0.65046654  0.39931379  1
  Fe  Fe8  1  0.70337280  0.30155277  0.79418001  1
  Fe  Fe9  1  0.87712626  0.37453705  0.49851069  1
  Fe  Fe10  1  0.72482965  0.02724795  0.90000387  1
  Fe  Fe11  1  0.90244716  0.10116531  0.60058926  1
  Fe  Fe12  1  0.19940858  0.79809788  0.80113653  1
  Fe  Fe13  1  0.37348829  0.87142491  0.49804896  1
  Fe  Fe14  1  0.54958265  0.94569886  0.20133484  1
  Fe  Fe15  1  0.22865449  0.51288492  0.90502367  1
  Fe  Fe16  1  0.57628911  0.67576355  0.30168217  1
  Fe  Fe17  1  0.75217402  0.75178908  0.00067806  1
  Fe  Fe18  1  0.42453538  0.32869282  0.69583567  1
  Fe  Fe19  1  0.60158283  0.40375393  0.40232175  1
  Fe  Fe20  1  0.77508795  0.47386950  0.09868013  1
  Fe  Fe21  1  0.62633357  0.12633178  0.49542781  1
  Fe  Fe22  1  0.80210751  0.20082746  0.19793699  1
  Fe  Fe23  1  0.09909160  0.90027652  0.40199063  1
  Fe  Fe24  1  0.27006049  0.97087701  0.10037570  1
  Fe  Fe25  1  0.12567724  0.62463896  0.50172906  1
  Fe  Fe26  1  0.29930469  0.69751650  0.19928264  1
  Fe  Fe27  1  0.15020674  0.35045093  0.59645289  1
  Fe  Fe28  1  0.32178842  0.42745864  0.30169752  1
  Fe  Fe29  1  0.50599597  0.51573260  0.99592327  1
  Fe  Fe30  1  0.17788724  0.08028562  0.71781133  1
  Fe  Fe31  1  0.34473021  0.14443919  0.42216996  1
  Fe  Fe32  1  0.02562846  0.72335618  0.10036193  1
  Fe  Fe33  1  0.04869873  0.45138549  0.20206567  1
  Fe  Fe34  1  0.08493615  0.17733852  0.29015068  1
  Fe  Fe35  1  0.99691718  0.99649323  0.00258132  1
  Fe  Fe36  1  0.40082292  0.60078377  0.60183813  1
  Fe  Fe37  1  0.45240186  0.03893169  0.78467137  1
  Sc  Sc38  1  0.48104880  0.22843145  0.08475981  1
