# generated using pymatgen
data_Zr3B8W
_symmetry_space_group_name_H-M   'P 1'
_cell_length_a   6.28125457
_cell_length_b   6.26961805
_cell_length_c   6.92722077
_cell_angle_alpha   90.00000000
_cell_angle_beta   90.00000000
_cell_angle_gamma   119.93873616
_symmetry_Int_Tables_number   1
_chemical_formula_structural   Zr3B8W
_chemical_formula_sum   'Zr6 B16 W2'
_cell_volume   236.39860742
_cell_formula_units_Z   2
loop_
 _symmetry_equiv_pos_site_id
 _symmetry_equiv_pos_as_xyz
  1  'x, y, z'
loop_
 _atom_site_type_symbol
 _atom_site_label
 _atom_site_symmetry_multiplicity
 _atom_site_fract_x
 _atom_site_fract_y
 _atom_site_fract_z
 _atom_site_occupancy
  W  W0  1  0.00000000  0.00000000  0.00000000  1
  W  W1  1  0.00000000  0.50000000  0.50000000  1
  B  B2  1  0.16530432  0.33265218  0.25000000  1
  B  B3  1  0.33033162  0.16516580  0.24992656  1
  B  B4  1  0.16530432  0.33265218  0.75000000  1
  B  B5  1  0.33033162  0.16516580  0.75007344  1
  B  B6  1  0.16530432  0.83265217  0.25000000  1
  B  B7  1  0.33033162  0.66516581  0.25007344  1
  B  B8  1  0.16530432  0.83265217  0.75000000  1
  B  B9  1  0.33033162  0.66516581  0.74992656  1
  B  B10  1  0.66966839  0.33483420  0.25007344  1
  B  B11  1  0.83469567  0.16734782  0.25000000  1
  B  B12  1  0.66966839  0.33483420  0.74992656  1
  B  B13  1  0.83469567  0.16734782  0.75000000  1
  B  B14  1  0.66966839  0.83483419  0.24992656  1
  B  B15  1  0.83469567  0.66734783  0.25000000  1
  B  B16  1  0.66966839  0.83483419  0.75007344  1
  B  B17  1  0.83469567  0.66734783  0.75000000  1
  Zr  Zr18  1  0.00000000  0.00000000  0.50000000  1
  Zr  Zr19  1  0.00000000  0.50000000  0.00000000  1
  Zr  Zr20  1  0.50000000  0.00000000  0.00000000  1
  Zr  Zr21  1  0.50000000  0.00000000  0.50000000  1
  Zr  Zr22  1  0.50000000  0.50000000  0.00000000  1
  Zr  Zr23  1  0.50000000  0.50000000  0.50000000  1
