# generated using pymatgen
data_Zr3TaB8
_symmetry_space_group_name_H-M   'P 1'
_cell_length_a   6.30260826
_cell_length_b   6.30022807
_cell_length_c   6.96899314
_cell_angle_alpha   90.00000000
_cell_angle_beta   90.00000000
_cell_angle_gamma   119.98750829
_symmetry_Int_Tables_number   1
_chemical_formula_structural   Zr3TaB8
_chemical_formula_sum   'Zr6 Ta2 B16'
_cell_volume   239.68006135
_cell_formula_units_Z   2
loop_
 _symmetry_equiv_pos_site_id
 _symmetry_equiv_pos_as_xyz
  1  'x, y, z'
loop_
 _atom_site_type_symbol
 _atom_site_label
 _atom_site_symmetry_multiplicity
 _atom_site_fract_x
 _atom_site_fract_y
 _atom_site_fract_z
 _atom_site_occupancy
  Ta  Ta0  1  0.00000000  0.00000000  0.00000000  1
  Ta  Ta1  1  0.00000000  0.50000000  0.50000000  1
  B  B2  1  0.16512643  0.33256323  0.25000000  1
  B  B3  1  0.33128689  0.16564344  0.24955765  1
  B  B4  1  0.16512643  0.33256323  0.75000000  1
  B  B5  1  0.33128689  0.16564344  0.75044235  1
  B  B6  1  0.16512643  0.83256322  0.25000000  1
  B  B7  1  0.33128689  0.66564345  0.25044235  1
  B  B8  1  0.16512643  0.83256322  0.75000000  1
  B  B9  1  0.33128689  0.66564345  0.74955765  1
  B  B10  1  0.66871312  0.33435656  0.25044235  1
  B  B11  1  0.83487356  0.16743677  0.25000000  1
  B  B12  1  0.66871312  0.33435656  0.74955765  1
  B  B13  1  0.83487356  0.16743677  0.75000000  1
  B  B14  1  0.66871312  0.83435655  0.24955765  1
  B  B15  1  0.83487356  0.66743678  0.25000000  1
  B  B16  1  0.66871312  0.83435655  0.75044235  1
  B  B17  1  0.83487356  0.66743678  0.75000000  1
  Zr  Zr18  1  0.00000000  0.00000000  0.50000000  1
  Zr  Zr19  1  0.00000000  0.50000000  0.00000000  1
  Zr  Zr20  1  0.50000000  0.00000000  0.00000000  1
  Zr  Zr21  1  0.50000000  0.00000000  0.50000000  1
  Zr  Zr22  1  0.50000000  0.50000000  0.00000000  1
  Zr  Zr23  1  0.50000000  0.50000000  0.50000000  1
