# generated using pymatgen
data_Zr3AlB8
_symmetry_space_group_name_H-M   'P 1'
_cell_length_a   6.25188966
_cell_length_b   6.22684823
_cell_length_c   7.07256512
_cell_angle_alpha   90.00000000
_cell_angle_beta   90.00000000
_cell_angle_gamma   120.13312019
_symmetry_Int_Tables_number   1
_chemical_formula_structural   Zr3AlB8
_chemical_formula_sum   'Zr6 Al2 B16'
_cell_volume   238.12393004
_cell_formula_units_Z   2
loop_
 _symmetry_equiv_pos_site_id
 _symmetry_equiv_pos_as_xyz
  1  'x, y, z'
loop_
 _atom_site_type_symbol
 _atom_site_label
 _atom_site_symmetry_multiplicity
 _atom_site_fract_x
 _atom_site_fract_y
 _atom_site_fract_z
 _atom_site_occupancy
  Zr  Zr0  1  0.00000000  0.00000000  0.00000000  1
  Zr  Zr1  1  0.00000000  0.00000000  0.50000000  1
  Zr  Zr2  1  0.00000000  0.50000000  0.50000000  1
  Zr  Zr3  1  0.50000000  0.00000000  0.00000000  1
  Zr  Zr4  1  0.50000000  0.00000000  0.50000000  1
  Zr  Zr5  1  0.50000000  0.50000000  0.50000000  1
  B  B6  1  0.16811458  0.33622917  0.24397505  1
  B  B7  1  0.33505282  0.17010563  0.24446295  1
  B  B8  1  0.16811458  0.33622917  0.75602495  1
  B  B9  1  0.33505282  0.17010563  0.75553705  1
  B  B10  1  0.16494718  0.82989436  0.24446295  1
  B  B11  1  0.33188542  0.66377084  0.24397505  1
  B  B12  1  0.16494718  0.82989436  0.75553705  1
  B  B13  1  0.33188542  0.66377084  0.75602495  1
  B  B14  1  0.66811459  0.33622917  0.24397505  1
  B  B15  1  0.83505281  0.17010563  0.24446295  1
  B  B16  1  0.66811459  0.33622917  0.75602495  1
  B  B17  1  0.83505281  0.17010563  0.75553705  1
  B  B18  1  0.66494719  0.82989436  0.24446295  1
  B  B19  1  0.83188541  0.66377084  0.24397505  1
  B  B20  1  0.66494719  0.82989436  0.75553705  1
  B  B21  1  0.83188541  0.66377084  0.75602495  1
  Al  Al22  1  0.00000000  0.50000000  0.00000000  1
  Al  Al23  1  0.50000000  0.50000000  0.00000000  1
