# generated using pymatgen
data_Zr3SiB8
_symmetry_space_group_name_H-M   'P 1'
_cell_length_a   6.18362129
_cell_length_b   6.17625578
_cell_length_c   7.27831797
_cell_angle_alpha   90.00000000
_cell_angle_beta   90.00000000
_cell_angle_gamma   119.96060558
_symmetry_Int_Tables_number   1
_chemical_formula_structural   Zr3SiB8
_chemical_formula_sum   'Zr6 Si2 B16'
_cell_volume   240.82528119
_cell_formula_units_Z   2
loop_
 _symmetry_equiv_pos_site_id
 _symmetry_equiv_pos_as_xyz
  1  'x, y, z'
loop_
 _atom_site_type_symbol
 _atom_site_label
 _atom_site_symmetry_multiplicity
 _atom_site_fract_x
 _atom_site_fract_y
 _atom_site_fract_z
 _atom_site_occupancy
  Zr  Zr0  1  0.00000000  0.00000000  0.00000000  1
  Zr  Zr1  1  0.00000000  0.50000000  0.50000000  1
  Zr  Zr2  1  0.50000000  0.00000000  0.00000000  1
  Zr  Zr3  1  0.50000000  0.00000000  0.50000000  1
  Zr  Zr4  1  0.50000000  0.50000000  0.00000000  1
  Zr  Zr5  1  0.50000000  0.50000000  0.50000000  1
  B  B6  1  0.16486091  0.33243046  0.25000000  1
  B  B7  1  0.33231907  0.16615953  0.24879775  1
  B  B8  1  0.16486091  0.33243046  0.75000000  1
  B  B9  1  0.33231907  0.16615953  0.75120225  1
  B  B10  1  0.16486091  0.83243045  0.25000000  1
  B  B11  1  0.33231907  0.66615954  0.25120225  1
  B  B12  1  0.16486091  0.83243045  0.75000000  1
  B  B13  1  0.33231907  0.66615954  0.74879775  1
  B  B14  1  0.66768094  0.33384047  0.25120225  1
  B  B15  1  0.83513908  0.16756954  0.25000000  1
  B  B16  1  0.66768094  0.33384047  0.74879775  1
  B  B17  1  0.83513908  0.16756954  0.75000000  1
  B  B18  1  0.66768094  0.83384046  0.24879775  1
  B  B19  1  0.83513908  0.66756955  0.25000000  1
  B  B20  1  0.66768094  0.83384046  0.75120225  1
  B  B21  1  0.83513908  0.66756955  0.75000000  1
  Si  Si22  1  0.00000000  0.00000000  0.50000000  1
  Si  Si23  1  0.00000000  0.50000000  0.00000000  1
