# generated using pymatgen
data_ZrAlB4
_symmetry_space_group_name_H-M   'P 1'
_cell_length_a   6.17212439
_cell_length_b   6.11764983
_cell_length_c   6.99286732
_cell_angle_alpha   90.00000000
_cell_angle_beta   90.00000000
_cell_angle_gamma   119.70846851
_symmetry_Int_Tables_number   1
_chemical_formula_structural   ZrAlB4
_chemical_formula_sum   'Zr4 Al4 B16'
_cell_volume   229.33668726
_cell_formula_units_Z   4
loop_
 _symmetry_equiv_pos_site_id
 _symmetry_equiv_pos_as_xyz
  1  'x, y, z'
loop_
 _atom_site_type_symbol
 _atom_site_label
 _atom_site_symmetry_multiplicity
 _atom_site_fract_x
 _atom_site_fract_y
 _atom_site_fract_z
 _atom_site_occupancy
  Zr  Zr0  1  0.00000000  0.00000000  0.00000000  1
  Zr  Zr1  1  0.00000000  0.00000000  0.50000000  1
  Zr  Zr2  1  0.50000000  0.00000000  0.50000000  1
  Zr  Zr3  1  0.50000000  0.50000000  0.00000000  1
  B  B4  1  0.16693794  0.33793463  0.25115204  1
  B  B5  1  0.33503288  0.16751644  0.25000000  1
  B  B6  1  0.16693794  0.33793463  0.74884796  1
  B  B7  1  0.33503288  0.16751644  0.75000000  1
  B  B8  1  0.16693794  0.82900333  0.24884796  1
  B  B9  1  0.33312887  0.66656443  0.25000000  1
  B  B10  1  0.16693794  0.82900333  0.75115204  1
  B  B11  1  0.33312887  0.66656443  0.75000000  1
  B  B12  1  0.66687114  0.33343558  0.25000000  1
  B  B13  1  0.83306205  0.17099666  0.24884796  1
  B  B14  1  0.66687114  0.33343558  0.75000000  1
  B  B15  1  0.83306205  0.17099666  0.75115204  1
  B  B16  1  0.66496713  0.83248355  0.25000000  1
  B  B17  1  0.83306205  0.66206538  0.25115204  1
  B  B18  1  0.66496713  0.83248355  0.75000000  1
  B  B19  1  0.83306205  0.66206538  0.74884796  1
  Al  Al20  1  0.00000000  0.50000000  0.00000000  1
  Al  Al21  1  0.00000000  0.50000000  0.50000000  1
  Al  Al22  1  0.50000000  0.00000000  0.00000000  1
  Al  Al23  1  0.50000000  0.50000000  0.50000000  1
