# generated using pymatgen
data_Zr3B8Mo
_symmetry_space_group_name_H-M   'P 1'
_cell_length_a   6.27991767
_cell_length_b   6.27991765
_cell_length_c   6.92215170
_cell_angle_alpha   90.00000000
_cell_angle_beta   90.00000000
_cell_angle_gamma   119.79048702
_symmetry_Int_Tables_number   1
_chemical_formula_structural   Zr3B8Mo
_chemical_formula_sum   'Zr6 B16 Mo2'
_cell_volume   236.91505324
_cell_formula_units_Z   2
loop_
 _symmetry_equiv_pos_site_id
 _symmetry_equiv_pos_as_xyz
  1  'x, y, z'
loop_
 _atom_site_type_symbol
 _atom_site_label
 _atom_site_symmetry_multiplicity
 _atom_site_fract_x
 _atom_site_fract_y
 _atom_site_fract_z
 _atom_site_occupancy
  Zr  Zr0  1  0.00000000  0.00000000  0.00000000  1
  Zr  Zr1  1  0.00000000  0.00000000  0.50000000  1
  Zr  Zr2  1  0.00000000  0.50000000  0.50000000  1
  Zr  Zr3  1  0.50000000  0.00000000  0.50000000  1
  Zr  Zr4  1  0.50000000  0.50000000  0.00000000  1
  Zr  Zr5  1  0.50000000  0.50000000  0.50000000  1
  B  B6  1  0.16543324  0.33456676  0.24464975  1
  B  B7  1  0.33456676  0.16543324  0.24464975  1
  B  B8  1  0.16543324  0.33456676  0.75535025  1
  B  B9  1  0.33456676  0.16543324  0.75535025  1
  B  B10  1  0.16771714  0.83228285  0.24428477  1
  B  B11  1  0.33228286  0.66771715  0.24428477  1
  B  B12  1  0.16771714  0.83228285  0.75571523  1
  B  B13  1  0.33228286  0.66771715  0.75571523  1
  B  B14  1  0.66771715  0.33228286  0.24428477  1
  B  B15  1  0.83228285  0.16771714  0.24428477  1
  B  B16  1  0.66771715  0.33228286  0.75571523  1
  B  B17  1  0.83228285  0.16771714  0.75571523  1
  B  B18  1  0.66543325  0.83456675  0.24464975  1
  B  B19  1  0.83456675  0.66543325  0.24464975  1
  B  B20  1  0.66543325  0.83456675  0.75535025  1
  B  B21  1  0.83456675  0.66543325  0.75535025  1
  Mo  Mo22  1  0.00000000  0.50000000  0.00000000  1
  Mo  Mo23  1  0.50000000  0.00000000  0.00000000  1
