# generated using pymatgen
data_ZrB4W
_symmetry_space_group_name_H-M   'P 1'
_cell_length_a   6.21561177
_cell_length_b   6.21270534
_cell_length_c   6.81141747
_cell_angle_alpha   90.00000000
_cell_angle_beta   90.00000000
_cell_angle_gamma   120.01547652
_symmetry_Int_Tables_number   1
_chemical_formula_structural   ZrB4W
_chemical_formula_sum   'Zr4 B16 W4'
_cell_volume   227.75347770
_cell_formula_units_Z   4
loop_
 _symmetry_equiv_pos_site_id
 _symmetry_equiv_pos_as_xyz
  1  'x, y, z'
loop_
 _atom_site_type_symbol
 _atom_site_label
 _atom_site_symmetry_multiplicity
 _atom_site_fract_x
 _atom_site_fract_y
 _atom_site_fract_z
 _atom_site_occupancy
  Zr  Zr0  1  0.00000000  0.00000000  0.00000000  1
  Zr  Zr1  1  0.00000000  0.00000000  0.50000000  1
  Zr  Zr2  1  0.00000000  0.50000000  0.50000000  1
  Zr  Zr3  1  0.50000000  0.50000000  0.50000000  1
  B  B4  1  0.16817324  0.33634650  0.24407377  1
  B  B5  1  0.33727949  0.16595482  0.24478898  1
  B  B6  1  0.16817324  0.33634650  0.75592623  1
  B  B7  1  0.33727949  0.16595482  0.75521102  1
  B  B8  1  0.17132465  0.83404517  0.24478898  1
  B  B9  1  0.33473471  0.66946940  0.24489139  1
  B  B10  1  0.17132465  0.83404517  0.75521102  1
  B  B11  1  0.33473471  0.66946940  0.75510861  1
  B  B12  1  0.66526530  0.33053061  0.24489139  1
  B  B13  1  0.82867534  0.16595482  0.24478898  1
  B  B14  1  0.66526530  0.33053061  0.75510861  1
  B  B15  1  0.82867534  0.16595482  0.75521102  1
  B  B16  1  0.66272052  0.83404517  0.24478898  1
  B  B17  1  0.83182675  0.66365351  0.24407377  1
  B  B18  1  0.66272052  0.83404517  0.75521102  1
  B  B19  1  0.83182675  0.66365351  0.75592623  1
  W  W20  1  0.00000000  0.50000000  0.00000000  1
  W  W21  1  0.50000000  0.00000000  0.00000000  1
  W  W22  1  0.50000000  0.00000000  0.50000000  1
  W  W23  1  0.50000000  0.50000000  0.00000000  1
