# generated using pymatgen
data_ZrSiB4
_symmetry_space_group_name_H-M   'P 1'
_cell_length_a   6.13007173
_cell_length_b   6.13007171
_cell_length_c   7.22867380
_cell_angle_alpha   90.00000000
_cell_angle_beta   90.00000000
_cell_angle_gamma   120.79566896
_symmetry_Int_Tables_number   1
_chemical_formula_structural   ZrSiB4
_chemical_formula_sum   'Zr4 Si4 B16'
_cell_volume   233.33623977
_cell_formula_units_Z   4
loop_
 _symmetry_equiv_pos_site_id
 _symmetry_equiv_pos_as_xyz
  1  'x, y, z'
loop_
 _atom_site_type_symbol
 _atom_site_label
 _atom_site_symmetry_multiplicity
 _atom_site_fract_x
 _atom_site_fract_y
 _atom_site_fract_z
 _atom_site_occupancy
  Zr  Zr0  1  0.00000000  0.00000000  0.00000000  1
  Zr  Zr1  1  0.00000000  0.00000000  0.50000000  1
  Zr  Zr2  1  0.00000000  0.50000000  0.00000000  1
  Zr  Zr3  1  0.50000000  0.00000000  0.00000000  1
  B  B4  1  0.16926433  0.33725504  0.25487296  1
  B  B5  1  0.33725504  0.16926433  0.25487296  1
  B  B6  1  0.16926433  0.33725504  0.74512704  1
  B  B7  1  0.33725504  0.16926433  0.74512704  1
  B  B8  1  0.16655601  0.83344398  0.25535797  1
  B  B9  1  0.33139397  0.66860604  0.26432970  1
  B  B10  1  0.16655601  0.83344398  0.74464203  1
  B  B11  1  0.33139397  0.66860604  0.73567030  1
  B  B12  1  0.66860604  0.33139397  0.26432970  1
  B  B13  1  0.83344398  0.16655601  0.25535797  1
  B  B14  1  0.66860604  0.33139397  0.73567030  1
  B  B15  1  0.83344398  0.16655601  0.74464203  1
  B  B16  1  0.66274497  0.83073566  0.25487296  1
  B  B17  1  0.83073566  0.66274497  0.25487296  1
  B  B18  1  0.66274497  0.83073566  0.74512704  1
  B  B19  1  0.83073566  0.66274497  0.74512704  1
  Si  Si20  1  0.00000000  0.50000000  0.50000000  1
  Si  Si21  1  0.50000000  0.00000000  0.50000000  1
  Si  Si22  1  0.50000000  0.50000000  0.00000000  1
  Si  Si23  1  0.50000000  0.50000000  0.50000000  1
