# generated using pymatgen
data_Zr3CrB8
_symmetry_space_group_name_H-M   'P 1'
_cell_length_a   6.24043384
_cell_length_b   6.24043382
_cell_length_c   6.84409703
_cell_angle_alpha   90.00000000
_cell_angle_beta   90.00000000
_cell_angle_gamma   119.72448961
_symmetry_Int_Tables_number   1
_chemical_formula_structural   Zr3CrB8
_chemical_formula_sum   'Zr6 Cr2 B16'
_cell_volume   231.45969248
_cell_formula_units_Z   2
loop_
 _symmetry_equiv_pos_site_id
 _symmetry_equiv_pos_as_xyz
  1  'x, y, z'
loop_
 _atom_site_type_symbol
 _atom_site_label
 _atom_site_symmetry_multiplicity
 _atom_site_fract_x
 _atom_site_fract_y
 _atom_site_fract_z
 _atom_site_occupancy
  Zr  Zr0  1  0.00000000  0.00000000  0.00000000  1
  Zr  Zr1  1  0.00000000  0.50000000  0.00000000  1
  Zr  Zr2  1  0.00000000  0.50000000  0.50000000  1
  Zr  Zr3  1  0.50000000  0.00000000  0.00000000  1
  Zr  Zr4  1  0.50000000  0.00000000  0.50000000  1
  Zr  Zr5  1  0.50000000  0.50000000  0.00000000  1
  B  B6  1  0.16881444  0.33118556  0.26111511  1
  B  B7  1  0.33118556  0.16881444  0.26111511  1
  B  B8  1  0.16881444  0.33118556  0.73888489  1
  B  B9  1  0.33118556  0.16881444  0.73888489  1
  B  B10  1  0.16397526  0.83602473  0.25900902  1
  B  B11  1  0.33602474  0.66397527  0.25900902  1
  B  B12  1  0.16397526  0.83602473  0.74099098  1
  B  B13  1  0.33602474  0.66397527  0.74099098  1
  B  B14  1  0.66397527  0.33602474  0.25900902  1
  B  B15  1  0.83602473  0.16397526  0.25900902  1
  B  B16  1  0.66397527  0.33602474  0.74099098  1
  B  B17  1  0.83602473  0.16397526  0.74099098  1
  B  B18  1  0.66881445  0.83118555  0.26111511  1
  B  B19  1  0.83118555  0.66881445  0.26111511  1
  B  B20  1  0.66881445  0.83118555  0.73888489  1
  B  B21  1  0.83118555  0.66881445  0.73888489  1
  Cr  Cr22  1  0.00000000  0.00000000  0.50000000  1
  Cr  Cr23  1  0.50000000  0.50000000  0.50000000  1
