# generated using pymatgen
data_Zr3TiB8
_symmetry_space_group_name_H-M   'P 1'
_cell_length_a   6.28116012
_cell_length_b   6.28116011
_cell_length_c   6.95813331
_cell_angle_alpha   90.00000000
_cell_angle_beta   90.00000000
_cell_angle_gamma   119.99999996
_symmetry_Int_Tables_number   1
_chemical_formula_structural   Zr3TiB8
_chemical_formula_sum   'Zr6 Ti2 B16'
_cell_volume   237.74046362
_cell_formula_units_Z   2
loop_
 _symmetry_equiv_pos_site_id
 _symmetry_equiv_pos_as_xyz
  1  'x, y, z'
loop_
 _atom_site_type_symbol
 _atom_site_label
 _atom_site_symmetry_multiplicity
 _atom_site_fract_x
 _atom_site_fract_y
 _atom_site_fract_z
 _atom_site_occupancy
  Zr  Zr0  1  0.00000000  0.00000000  0.00000000  1
  Zr  Zr1  1  0.00000000  0.00000000  0.50000000  1
  Zr  Zr2  1  0.00000000  0.50000000  0.00000000  1
  Zr  Zr3  1  0.00000000  0.50000000  0.50000000  1
  Zr  Zr4  1  0.50000000  0.00000000  0.00000000  1
  Zr  Zr5  1  0.50000000  0.00000000  0.50000000  1
  B  B6  1  0.17248734  0.33624368  0.25000000  1
  B  B7  1  0.33624368  0.17248734  0.25000000  1
  B  B8  1  0.17248734  0.33624368  0.75000000  1
  B  B9  1  0.33624368  0.17248734  0.75000000  1
  B  B10  1  0.16666666  0.83333333  0.25000000  1
  B  B11  1  0.33624368  0.66375633  0.25000000  1
  B  B12  1  0.16666666  0.83333333  0.75000000  1
  B  B13  1  0.33624368  0.66375633  0.75000000  1
  B  B14  1  0.66375633  0.33624368  0.25000000  1
  B  B15  1  0.83333333  0.16666666  0.25000000  1
  B  B16  1  0.66375633  0.33624368  0.75000000  1
  B  B17  1  0.83333333  0.16666666  0.75000000  1
  B  B18  1  0.66375633  0.82751265  0.25000000  1
  B  B19  1  0.82751265  0.66375633  0.25000000  1
  B  B20  1  0.66375633  0.82751265  0.75000000  1
  B  B21  1  0.82751265  0.66375633  0.75000000  1
  Ti  Ti22  1  0.50000000  0.50000000  0.00000000  1
  Ti  Ti23  1  0.50000000  0.50000000  0.50000000  1
