# generated using pymatgen
data_HfZr3B8
_symmetry_space_group_name_H-M   'P 1'
_cell_length_a   6.32955971
_cell_length_b   6.33174272
_cell_length_c   7.05628143
_cell_angle_alpha   90.00000000
_cell_angle_beta   90.00000000
_cell_angle_gamma   120.01140965
_symmetry_Int_Tables_number   1
_chemical_formula_structural   HfZr3B8
_chemical_formula_sum   'Hf2 Zr6 B16'
_cell_volume   244.88001520
_cell_formula_units_Z   2
loop_
 _symmetry_equiv_pos_site_id
 _symmetry_equiv_pos_as_xyz
  1  'x, y, z'
loop_
 _atom_site_type_symbol
 _atom_site_label
 _atom_site_symmetry_multiplicity
 _atom_site_fract_x
 _atom_site_fract_y
 _atom_site_fract_z
 _atom_site_occupancy
  Zr  Zr0  1  0.00000000  0.00000000  0.00000000  1
  Zr  Zr1  1  0.00000000  0.50000000  0.50000000  1
  Zr  Zr2  1  0.50000000  0.00000000  0.00000000  1
  Zr  Zr3  1  0.50000000  0.00000000  0.50000000  1
  Zr  Zr4  1  0.50000000  0.50000000  0.00000000  1
  Zr  Zr5  1  0.50000000  0.50000000  0.50000000  1
  B  B6  1  0.16597826  0.33298914  0.25000000  1
  B  B7  1  0.33260834  0.16630416  0.25051511  1
  B  B8  1  0.16597826  0.33298914  0.75000000  1
  B  B9  1  0.33260834  0.16630416  0.74948489  1
  B  B10  1  0.16597826  0.83298913  0.25000000  1
  B  B11  1  0.33260834  0.66630417  0.24948489  1
  B  B12  1  0.16597826  0.83298913  0.75000000  1
  B  B13  1  0.33260834  0.66630417  0.75051511  1
  B  B14  1  0.66739167  0.33369584  0.24948489  1
  B  B15  1  0.83402173  0.16701086  0.25000000  1
  B  B16  1  0.66739167  0.33369584  0.75051511  1
  B  B17  1  0.83402173  0.16701086  0.75000000  1
  B  B18  1  0.66739167  0.83369583  0.25051511  1
  B  B19  1  0.83402173  0.66701087  0.25000000  1
  B  B20  1  0.66739167  0.83369583  0.74948489  1
  B  B21  1  0.83402173  0.66701087  0.75000000  1
  Hf  Hf22  1  0.00000000  0.00000000  0.50000000  1
  Hf  Hf23  1  0.00000000  0.50000000  0.00000000  1
