# generated using pymatgen
data_Zr3NbB8
_symmetry_space_group_name_H-M   'P 1'
_cell_length_a   6.30371847
_cell_length_b   6.30652529
_cell_length_c   6.98034604
_cell_angle_alpha   90.00000000
_cell_angle_beta   90.00000000
_cell_angle_gamma   119.98527839
_symmetry_Int_Tables_number   1
_chemical_formula_structural   Zr3NbB8
_chemical_formula_sum   'Zr6 Nb2 B16'
_cell_volume   240.35819887
_cell_formula_units_Z   2
loop_
 _symmetry_equiv_pos_site_id
 _symmetry_equiv_pos_as_xyz
  1  'x, y, z'
loop_
 _atom_site_type_symbol
 _atom_site_label
 _atom_site_symmetry_multiplicity
 _atom_site_fract_x
 _atom_site_fract_y
 _atom_site_fract_z
 _atom_site_occupancy
  Zr  Zr0  1  0.00000000  0.00000000  0.00000000  1
  Zr  Zr1  1  0.00000000  0.00000000  0.50000000  1
  Zr  Zr2  1  0.00000000  0.50000000  0.50000000  1
  Zr  Zr3  1  0.50000000  0.00000000  0.00000000  1
  Zr  Zr4  1  0.50000000  0.00000000  0.50000000  1
  Zr  Zr5  1  0.50000000  0.50000000  0.00000000  1
  B  B6  1  0.16734900  0.33469800  0.25000000  1
  B  B7  1  0.33421686  0.16843369  0.25021872  1
  B  B8  1  0.16734900  0.33469800  0.75000000  1
  B  B9  1  0.33421686  0.16843369  0.74978128  1
  B  B10  1  0.16578314  0.83156630  0.24978128  1
  B  B11  1  0.33265100  0.66530201  0.25000000  1
  B  B12  1  0.16578314  0.83156630  0.75021872  1
  B  B13  1  0.33265100  0.66530201  0.75000000  1
  B  B14  1  0.66734901  0.33469800  0.25000000  1
  B  B15  1  0.83421685  0.16843369  0.24978128  1
  B  B16  1  0.66734901  0.33469800  0.75000000  1
  B  B17  1  0.83421685  0.16843369  0.75021872  1
  B  B18  1  0.66578315  0.83156630  0.25021872  1
  B  B19  1  0.83265099  0.66530201  0.25000000  1
  B  B20  1  0.66578315  0.83156630  0.74978128  1
  B  B21  1  0.83265099  0.66530201  0.75000000  1
  Nb  Nb22  1  0.00000000  0.50000000  0.00000000  1
  Nb  Nb23  1  0.50000000  0.50000000  0.50000000  1
