# generated using pymatgen
data_ZrVB4
_symmetry_space_group_name_H-M   'P 1'
_cell_length_a   6.17382429
_cell_length_b   6.17382427
_cell_length_c   6.65976625
_cell_angle_alpha   90.00000000
_cell_angle_beta   90.00000000
_cell_angle_gamma   120.11476837
_symmetry_Int_Tables_number   1
_chemical_formula_structural   ZrVB4
_chemical_formula_sum   'Zr4 V4 B16'
_cell_volume   219.58098552
_cell_formula_units_Z   4
loop_
 _symmetry_equiv_pos_site_id
 _symmetry_equiv_pos_as_xyz
  1  'x, y, z'
loop_
 _atom_site_type_symbol
 _atom_site_label
 _atom_site_symmetry_multiplicity
 _atom_site_fract_x
 _atom_site_fract_y
 _atom_site_fract_z
 _atom_site_occupancy
  Zr  Zr0  1  0.00000000  0.00000000  0.00000000  1
  Zr  Zr1  1  0.00000000  0.00000000  0.50000000  1
  Zr  Zr2  1  0.00000000  0.50000000  0.00000000  1
  Zr  Zr3  1  0.50000000  0.00000000  0.50000000  1
  B  B4  1  0.17290054  0.33891978  0.25325522  1
  B  B5  1  0.33891978  0.17290054  0.24674478  1
  B  B6  1  0.17290054  0.33891978  0.74674478  1
  B  B7  1  0.33891978  0.17290054  0.75325522  1
  B  B8  1  0.16853071  0.83146928  0.25000000  1
  B  B9  1  0.33522784  0.66477217  0.25000000  1
  B  B10  1  0.16853071  0.83146928  0.75000000  1
  B  B11  1  0.33522784  0.66477217  0.75000000  1
  B  B12  1  0.66477217  0.33522784  0.25000000  1
  B  B13  1  0.83146928  0.16853071  0.25000000  1
  B  B14  1  0.66477217  0.33522784  0.75000000  1
  B  B15  1  0.83146928  0.16853071  0.75000000  1
  B  B16  1  0.66108023  0.82709945  0.24674478  1
  B  B17  1  0.82709945  0.66108023  0.25325522  1
  B  B18  1  0.66108023  0.82709945  0.75325522  1
  B  B19  1  0.82709945  0.66108023  0.74674478  1
  V  V20  1  0.00000000  0.50000000  0.50000000  1
  V  V21  1  0.50000000  0.00000000  0.00000000  1
  V  V22  1  0.50000000  0.50000000  0.00000000  1
  V  V23  1  0.50000000  0.50000000  0.50000000  1
