# generated using pymatgen
data_ZrNbB4
_symmetry_space_group_name_H-M   'P 1'
_cell_length_a   6.27342202
_cell_length_b   6.27646885
_cell_length_c   6.85973155
_cell_angle_alpha   90.00000000
_cell_angle_beta   90.00000000
_cell_angle_gamma   119.98394309
_symmetry_Int_Tables_number   1
_chemical_formula_structural   ZrNbB4
_chemical_formula_sum   'Zr4 Nb4 B16'
_cell_volume   233.95260189
_cell_formula_units_Z   4
loop_
 _symmetry_equiv_pos_site_id
 _symmetry_equiv_pos_as_xyz
  1  'x, y, z'
loop_
 _atom_site_type_symbol
 _atom_site_label
 _atom_site_symmetry_multiplicity
 _atom_site_fract_x
 _atom_site_fract_y
 _atom_site_fract_z
 _atom_site_occupancy
  Zr  Zr0  1  0.00000000  0.00000000  0.00000000  1
  Zr  Zr1  1  0.00000000  0.00000000  0.50000000  1
  Zr  Zr2  1  0.00000000  0.50000000  0.00000000  1
  Zr  Zr3  1  0.50000000  0.50000000  0.50000000  1
  B  B4  1  0.16726975  0.33453953  0.25000000  1
  B  B5  1  0.33538488  0.16657598  0.24915528  1
  B  B6  1  0.16726975  0.33453953  0.75000000  1
  B  B7  1  0.33538488  0.16657598  0.75084472  1
  B  B8  1  0.16880889  0.83342401  0.25084472  1
  B  B9  1  0.33412110  0.66824219  0.25000000  1
  B  B10  1  0.16880889  0.83342401  0.74915528  1
  B  B11  1  0.33412110  0.66824219  0.75000000  1
  B  B12  1  0.66587891  0.33175782  0.25000000  1
  B  B13  1  0.83119110  0.16657598  0.25084472  1
  B  B14  1  0.66587891  0.33175782  0.75000000  1
  B  B15  1  0.83119110  0.16657598  0.74915528  1
  B  B16  1  0.66461513  0.83342401  0.24915528  1
  B  B17  1  0.83273024  0.66546048  0.25000000  1
  B  B18  1  0.66461513  0.83342401  0.75084472  1
  B  B19  1  0.83273024  0.66546048  0.75000000  1
  Nb  Nb20  1  0.00000000  0.50000000  0.50000000  1
  Nb  Nb21  1  0.50000000  0.00000000  0.00000000  1
  Nb  Nb22  1  0.50000000  0.00000000  0.50000000  1
  Nb  Nb23  1  0.50000000  0.50000000  0.00000000  1
