# generated using pymatgen
data_HfZrB4
_symmetry_space_group_name_H-M   'P 1'
_cell_length_a   6.31535278
_cell_length_b   6.31535277
_cell_length_c   7.02773710
_cell_angle_alpha   90.00000000
_cell_angle_beta   90.00000000
_cell_angle_gamma   119.99999997
_symmetry_Int_Tables_number   1
_chemical_formula_structural   HfZrB4
_chemical_formula_sum   'Hf4 Zr4 B16'
_cell_volume   242.74001171
_cell_formula_units_Z   4
loop_
 _symmetry_equiv_pos_site_id
 _symmetry_equiv_pos_as_xyz
  1  'x, y, z'
loop_
 _atom_site_type_symbol
 _atom_site_label
 _atom_site_symmetry_multiplicity
 _atom_site_fract_x
 _atom_site_fract_y
 _atom_site_fract_z
 _atom_site_occupancy
  Hf  Hf0  1  0.00000000  0.00000000  0.00000000  1
  Hf  Hf1  1  0.00000000  0.50000000  0.50000000  1
  Hf  Hf2  1  0.50000000  0.00000000  0.00000000  1
  Hf  Hf3  1  0.50000000  0.50000000  0.00000000  1
  B  B4  1  0.16666611  0.33333389  0.24860524  1
  B  B5  1  0.33333334  0.16666666  0.24743190  1
  B  B6  1  0.16666611  0.33333389  0.75139476  1
  B  B7  1  0.33333334  0.16666666  0.75256810  1
  B  B8  1  0.16666611  0.83333222  0.24860524  1
  B  B9  1  0.33333223  0.66666612  0.24860524  1
  B  B10  1  0.16666611  0.83333222  0.75139476  1
  B  B11  1  0.33333223  0.66666612  0.75139476  1
  B  B12  1  0.66666778  0.33333389  0.24860524  1
  B  B13  1  0.83333388  0.16666777  0.24860524  1
  B  B14  1  0.66666778  0.33333389  0.75139476  1
  B  B15  1  0.83333388  0.16666777  0.75139476  1
  B  B16  1  0.66666667  0.83333333  0.24743190  1
  B  B17  1  0.83333388  0.66666612  0.24860524  1
  B  B18  1  0.66666667  0.83333333  0.75256810  1
  B  B19  1  0.83333388  0.66666612  0.75139476  1
  Zr  Zr20  1  0.00000000  0.00000000  0.50000000  1
  Zr  Zr21  1  0.00000000  0.50000000  0.00000000  1
  Zr  Zr22  1  0.50000000  0.00000000  0.50000000  1
  Zr  Zr23  1  0.50000000  0.50000000  0.50000000  1
