# generated using pymatgen
data_ZrTiB4
_symmetry_space_group_name_H-M   'P 1'
_cell_length_a   6.21234713
_cell_length_b   6.21011103
_cell_length_c   6.81417915
_cell_angle_alpha   90.00000000
_cell_angle_beta   90.00000000
_cell_angle_gamma   119.98809395
_symmetry_Int_Tables_number   1
_chemical_formula_structural   ZrTiB4
_chemical_formula_sum   'Zr4 Ti4 B16'
_cell_volume   227.69387622
_cell_formula_units_Z   4
loop_
 _symmetry_equiv_pos_site_id
 _symmetry_equiv_pos_as_xyz
  1  'x, y, z'
loop_
 _atom_site_type_symbol
 _atom_site_label
 _atom_site_symmetry_multiplicity
 _atom_site_fract_x
 _atom_site_fract_y
 _atom_site_fract_z
 _atom_site_occupancy
  Ti  Ti0  1  0.00000000  0.00000000  0.00000000  1
  Ti  Ti1  1  0.00000000  0.50000000  0.50000000  1
  Ti  Ti2  1  0.50000000  0.50000000  0.00000000  1
  Ti  Ti3  1  0.50000000  0.50000000  0.50000000  1
  B  B4  1  0.16960336  0.33480169  0.25000000  1
  B  B5  1  0.33364750  0.17130784  0.24760761  1
  B  B6  1  0.16960336  0.33480169  0.75000000  1
  B  B7  1  0.33364750  0.17130784  0.75239239  1
  B  B8  1  0.16372015  0.83186008  0.25000000  1
  B  B9  1  0.33364750  0.66233965  0.25239239  1
  B  B10  1  0.16372015  0.83186008  0.75000000  1
  B  B11  1  0.33364750  0.66233965  0.74760761  1
  B  B12  1  0.66635251  0.33766036  0.25239239  1
  B  B13  1  0.83627984  0.16813991  0.25000000  1
  B  B14  1  0.66635251  0.33766036  0.74760761  1
  B  B15  1  0.83627984  0.16813991  0.75000000  1
  B  B16  1  0.66635251  0.82869215  0.24760761  1
  B  B17  1  0.83039663  0.66519832  0.25000000  1
  B  B18  1  0.66635251  0.82869215  0.75239239  1
  B  B19  1  0.83039663  0.66519832  0.75000000  1
  Zr  Zr20  1  0.00000000  0.00000000  0.50000000  1
  Zr  Zr21  1  0.00000000  0.50000000  0.00000000  1
  Zr  Zr22  1  0.50000000  0.00000000  0.00000000  1
  Zr  Zr23  1  0.50000000  0.00000000  0.50000000  1
