# generated using pymatgen
data_ZrCrB4
_symmetry_space_group_name_H-M   'P 1'
_cell_length_a   6.13077876
_cell_length_b   6.13077873
_cell_length_c   6.62218548
_cell_angle_alpha   90.00000000
_cell_angle_beta   90.00000000
_cell_angle_gamma   120.03547998
_symmetry_Int_Tables_number   1
_chemical_formula_structural   ZrCrB4
_chemical_formula_sum   'Zr4 Cr4 B16'
_cell_volume   215.48045243
_cell_formula_units_Z   4
loop_
 _symmetry_equiv_pos_site_id
 _symmetry_equiv_pos_as_xyz
  1  'x, y, z'
loop_
 _atom_site_type_symbol
 _atom_site_label
 _atom_site_symmetry_multiplicity
 _atom_site_fract_x
 _atom_site_fract_y
 _atom_site_fract_z
 _atom_site_occupancy
  Zr  Zr0  1  0.00000000  0.00000000  0.00000000  1
  Zr  Zr1  1  0.00000000  0.50000000  0.00000000  1
  Zr  Zr2  1  0.00000000  0.50000000  0.50000000  1
  Zr  Zr3  1  0.50000000  0.50000000  0.00000000  1
  B  B4  1  0.16957834  0.33042166  0.26310406  1
  B  B5  1  0.33514374  0.16485626  0.26459339  1
  B  B6  1  0.16957834  0.33042166  0.73689594  1
  B  B7  1  0.33514374  0.16485626  0.73540661  1
  B  B8  1  0.17461693  0.84064176  0.26036346  1
  B  B9  1  0.34064177  0.67461694  0.26036346  1
  B  B10  1  0.17461693  0.84064176  0.73963654  1
  B  B11  1  0.34064177  0.67461694  0.73963654  1
  B  B12  1  0.65935824  0.32538307  0.26036346  1
  B  B13  1  0.82538306  0.15935823  0.26036346  1
  B  B14  1  0.65935824  0.32538307  0.73963654  1
  B  B15  1  0.82538306  0.15935823  0.73963654  1
  B  B16  1  0.66485627  0.83514373  0.26459339  1
  B  B17  1  0.83042165  0.66957835  0.26310406  1
  B  B18  1  0.66485627  0.83514373  0.73540661  1
  B  B19  1  0.83042165  0.66957835  0.73689594  1
  Cr  Cr20  1  0.00000000  0.00000000  0.50000000  1
  Cr  Cr21  1  0.50000000  0.00000000  0.00000000  1
  Cr  Cr22  1  0.50000000  0.00000000  0.50000000  1
  Cr  Cr23  1  0.50000000  0.50000000  0.50000000  1
