# generated using pymatgen
data_ZrB4Mo
_symmetry_space_group_name_H-M   'P 1'
_cell_length_a   6.19131991
_cell_length_b   6.16947195
_cell_length_c   6.91070324
_cell_angle_alpha   90.00000000
_cell_angle_beta   90.00000000
_cell_angle_gamma   120.11721448
_symmetry_Int_Tables_number   1
_chemical_formula_structural   ZrB4Mo
_chemical_formula_sum   'Zr4 B16 Mo4'
_cell_volume   228.33366252
_cell_formula_units_Z   4
loop_
 _symmetry_equiv_pos_site_id
 _symmetry_equiv_pos_as_xyz
  1  'x, y, z'
loop_
 _atom_site_type_symbol
 _atom_site_label
 _atom_site_symmetry_multiplicity
 _atom_site_fract_x
 _atom_site_fract_y
 _atom_site_fract_z
 _atom_site_occupancy
  Mo  Mo0  1  0.00000000  0.00000000  0.00000000  1
  Mo  Mo1  1  0.00000000  0.00000000  0.50000000  1
  Mo  Mo2  1  0.50000000  0.00000000  0.00000000  1
  Mo  Mo3  1  0.50000000  0.00000000  0.50000000  1
  B  B4  1  0.16339248  0.32678497  0.25000000  1
  B  B5  1  0.33096403  0.16192803  0.25000000  1
  B  B6  1  0.16339248  0.32678497  0.75000000  1
  B  B7  1  0.33096403  0.16192803  0.75000000  1
  B  B8  1  0.16903597  0.83807196  0.25000000  1
  B  B9  1  0.33660752  0.67321504  0.25000000  1
  B  B10  1  0.16903597  0.83807196  0.75000000  1
  B  B11  1  0.33660752  0.67321504  0.75000000  1
  B  B12  1  0.66339249  0.32678497  0.25000000  1
  B  B13  1  0.83096402  0.16192803  0.25000000  1
  B  B14  1  0.66339249  0.32678497  0.75000000  1
  B  B15  1  0.83096402  0.16192803  0.75000000  1
  B  B16  1  0.66903598  0.83807196  0.25000000  1
  B  B17  1  0.83660751  0.67321504  0.25000000  1
  B  B18  1  0.66903598  0.83807196  0.75000000  1
  B  B19  1  0.83660751  0.67321504  0.75000000  1
  Zr  Zr20  1  0.00000000  0.50000000  0.00000000  1
  Zr  Zr21  1  0.00000000  0.50000000  0.50000000  1
  Zr  Zr22  1  0.50000000  0.50000000  0.00000000  1
  Zr  Zr23  1  0.50000000  0.50000000  0.50000000  1
