# generated using pymatgen
data_ZrTaB4
_symmetry_space_group_name_H-M   'P 1'
_cell_length_a   6.26306256
_cell_length_b   6.27072691
_cell_length_c   6.84609715
_cell_angle_alpha   90.00000000
_cell_angle_beta   90.00000000
_cell_angle_gamma   119.95957669
_symmetry_Int_Tables_number   1
_chemical_formula_structural   ZrTaB4
_chemical_formula_sum   'Zr4 Ta4 B16'
_cell_volume   232.94590729
_cell_formula_units_Z   4
loop_
 _symmetry_equiv_pos_site_id
 _symmetry_equiv_pos_as_xyz
  1  'x, y, z'
loop_
 _atom_site_type_symbol
 _atom_site_label
 _atom_site_symmetry_multiplicity
 _atom_site_fract_x
 _atom_site_fract_y
 _atom_site_fract_z
 _atom_site_occupancy
  Ta  Ta0  1  0.00000000  0.00000000  0.00000000  1
  Ta  Ta1  1  0.00000000  0.00000000  0.50000000  1
  Ta  Ta2  1  0.50000000  0.00000000  0.00000000  1
  Ta  Ta3  1  0.50000000  0.00000000  0.50000000  1
  B  B4  1  0.16465696  0.32931393  0.25000000  1
  B  B5  1  0.33198784  0.16397566  0.25000000  1
  B  B6  1  0.16465696  0.32931393  0.75000000  1
  B  B7  1  0.33198784  0.16397566  0.75000000  1
  B  B8  1  0.16801216  0.83602433  0.25000000  1
  B  B9  1  0.33534304  0.67068608  0.25000000  1
  B  B10  1  0.16801216  0.83602433  0.75000000  1
  B  B11  1  0.33534304  0.67068608  0.75000000  1
  B  B12  1  0.66465697  0.32931393  0.25000000  1
  B  B13  1  0.83198783  0.16397566  0.25000000  1
  B  B14  1  0.66465697  0.32931393  0.75000000  1
  B  B15  1  0.83198783  0.16397566  0.75000000  1
  B  B16  1  0.66801217  0.83602433  0.25000000  1
  B  B17  1  0.83534303  0.67068608  0.25000000  1
  B  B18  1  0.66801217  0.83602433  0.75000000  1
  B  B19  1  0.83534303  0.67068608  0.75000000  1
  Zr  Zr20  1  0.00000000  0.50000000  0.00000000  1
  Zr  Zr21  1  0.00000000  0.50000000  0.50000000  1
  Zr  Zr22  1  0.50000000  0.50000000  0.00000000  1
  Zr  Zr23  1  0.50000000  0.50000000  0.50000000  1
