# generated using pymatgen
data_MoC
_symmetry_space_group_name_H-M   'P 1'
_cell_length_a   3.03360724
_cell_length_b   3.03360724
_cell_length_c   10.57785965
_cell_angle_alpha   90.00000000
_cell_angle_beta   90.00000000
_cell_angle_gamma   120.00000005
_symmetry_Int_Tables_number   1
_chemical_formula_structural   MoC
_chemical_formula_sum   'Mo4 C4'
_cell_volume   84.30379702
_cell_formula_units_Z   4
loop_
 _symmetry_equiv_pos_site_id
 _symmetry_equiv_pos_as_xyz
  1  'x, y, z'
loop_
 _atom_site_type_symbol
 _atom_site_label
 _atom_site_symmetry_multiplicity
 _atom_site_fract_x
 _atom_site_fract_y
 _atom_site_fract_z
 _atom_site_occupancy
  C  C0  1  -0.00000000  0.00000000  -0.00000000  1
  C  C1  1  -0.00000000  0.00000000  0.50000000  1
  C  C2  1  0.33333333  0.66666667  0.75000000  1
  C  C3  1  0.66666667  0.33333333  0.25000000  1
  Mo  Mo4  1  0.33333333  0.66666667  0.38064493  1
  Mo  Mo5  1  0.66666667  0.33333333  0.88064493  1
  Mo  Mo6  1  0.66666667  0.33333333  0.61935507  1
  Mo  Mo7  1  0.33333333  0.66666667  0.11935507  1
