# generated using pymatgen
data_MoN
_symmetry_space_group_name_H-M   'P 1'
_cell_length_a   5.74883484
_cell_length_b   5.74883485
_cell_length_c   5.66425856
_cell_angle_alpha   90.00000000
_cell_angle_beta   90.00000000
_cell_angle_gamma   119.99999997
_symmetry_Int_Tables_number   1
_chemical_formula_structural   MoN
_chemical_formula_sum   'Mo8 N8'
_cell_volume   162.11879446
_cell_formula_units_Z   8
loop_
 _symmetry_equiv_pos_site_id
 _symmetry_equiv_pos_as_xyz
  1  'x, y, z'
loop_
 _atom_site_type_symbol
 _atom_site_label
 _atom_site_symmetry_multiplicity
 _atom_site_fract_x
 _atom_site_fract_y
 _atom_site_fract_z
 _atom_site_occupancy
  Mo  Mo0  1  -0.00000000  0.00000000  0.25639403  1
  Mo  Mo1  1  -0.00000000  0.00000000  0.75639403  1
  Mo  Mo2  1  0.48843300  0.51156700  0.24797991  1
  Mo  Mo3  1  0.97686601  0.48843300  0.74797991  1
  Mo  Mo4  1  0.48843300  0.97686601  0.24797991  1
  Mo  Mo5  1  0.51156700  0.48843300  0.74797991  1
  Mo  Mo6  1  0.02313399  0.51156700  0.24797991  1
  Mo  Mo7  1  0.51156700  0.02313399  0.74797991  1
  N  N8  1  0.33333333  0.66666667  0.51937646  1
  N  N9  1  0.66666667  0.33333333  0.01937646  1
  N  N10  1  0.16656706  0.83343294  0.99342992  1
  N  N11  1  0.33313411  0.16656706  0.49342992  1
  N  N12  1  0.16656706  0.33313411  0.99342992  1
  N  N13  1  0.83343294  0.16656706  0.49342992  1
  N  N14  1  0.66686589  0.83343294  0.99342992  1
  N  N15  1  0.83343294  0.66686589  0.49342992  1
