# generated using pymatgen
data_TiAlCN
_symmetry_space_group_name_H-M   'P 1'
_cell_length_a   5.93756769
_cell_length_b   5.94038141
_cell_length_c   5.22249142
_cell_angle_alpha   90.00000000
_cell_angle_beta   90.00000000
_cell_angle_gamma   120.01567717
_symmetry_Int_Tables_number   1
_chemical_formula_structural   TiAlCN
_chemical_formula_sum   'Ti4 Al4 C4 N4'
_cell_volume   159.50071798
_cell_formula_units_Z   4
loop_
 _symmetry_equiv_pos_site_id
 _symmetry_equiv_pos_as_xyz
  1  'x, y, z'
loop_
 _atom_site_type_symbol
 _atom_site_label
 _atom_site_symmetry_multiplicity
 _atom_site_fract_x
 _atom_site_fract_y
 _atom_site_fract_z
 _atom_site_occupancy
  Al  Al0  1  0.16630818  0.33552050  0.00000000  1
  Al  Al1  1  0.16630818  0.83078767  0.00000000  1
  Al  Al2  1  0.66012191  0.83006095  0.00000000  1
  Al  Al3  1  0.67068966  0.83534483  0.50000000  1
  C  C4  1  0.00300847  0.00150424  0.24327659  1
  C  C5  1  0.00300847  0.00150424  0.75672341  1
  C  C6  1  0.99488226  0.49744113  0.24879221  1
  C  C7  1  0.99488226  0.49744113  0.75120779  1
  Ti  Ti8  1  0.17231338  0.33494042  0.50000000  1
  Ti  Ti9  1  0.17231338  0.83737295  0.50000000  1
  Ti  Ti10  1  0.65540559  0.32770279  0.00000000  1
  Ti  Ti11  1  0.66112990  0.33056495  0.50000000  1
  N  N12  1  0.50324043  0.99746764  0.24709133  1
  N  N13  1  0.50324043  0.99746764  0.75290867  1
  N  N14  1  0.50324043  0.50577279  0.24709133  1
  N  N15  1  0.50324043  0.50577279  0.75290867  1
