# generated using pymatgen
data_TaTi3(CN)2
_symmetry_space_group_name_H-M   'P 1'
_cell_length_a   5.97059209
_cell_length_b   5.96191020
_cell_length_c   5.49536101
_cell_angle_alpha   90.00000000
_cell_angle_beta   90.00000000
_cell_angle_gamma   119.95191016
_symmetry_Int_Tables_number   1
_chemical_formula_structural   TaTi3(CN)2
_chemical_formula_sum   'Ta2 Ti6 C4 N4'
_cell_volume   169.48838436
_cell_formula_units_Z   2
loop_
 _symmetry_equiv_pos_site_id
 _symmetry_equiv_pos_as_xyz
  1  'x, y, z'
loop_
 _atom_site_type_symbol
 _atom_site_label
 _atom_site_symmetry_multiplicity
 _atom_site_fract_x
 _atom_site_fract_y
 _atom_site_fract_z
 _atom_site_occupancy
  Ti  Ti0  1  0.16314915  0.32731309  0.00000000  1
  Ti  Ti1  1  0.16314915  0.33583605  0.50000000  1
  Ti  Ti2  1  0.16314915  0.83583605  0.00000000  1
  Ti  Ti3  1  0.16314915  0.82731309  0.50000000  1
  Ti  Ti4  1  0.67148291  0.33574145  0.50000000  1
  Ti  Ti5  1  0.67148291  0.83574145  0.00000000  1
  C  C6  1  0.99740121  0.99870061  0.25201442  1
  C  C7  1  0.99740121  0.99870061  0.74798558  1
  C  C8  1  0.99740121  0.49870061  0.24798558  1
  C  C9  1  0.99740121  0.49870061  0.75201442  1
  Ta  Ta10  1  0.66791897  0.33395948  0.00000000  1
  Ta  Ta11  1  0.66791897  0.83395948  0.50000000  1
  N  N12  1  0.50308203  0.00154101  0.25000000  1
  N  N13  1  0.50308203  0.00154101  0.75000000  1
  N  N14  1  0.50308203  0.50154101  0.25000000  1
  N  N15  1  0.50308203  0.50154101  0.75000000  1
