# generated using pymatgen
data_TiSiCN
_symmetry_space_group_name_H-M   'P 1'
_cell_length_a   6.36638165
_cell_length_b   5.57622438
_cell_length_c   5.33270490
_cell_angle_alpha   90.00000000
_cell_angle_beta   90.00000000
_cell_angle_gamma   115.97270908
_symmetry_Int_Tables_number   1
_chemical_formula_structural   TiSiCN
_chemical_formula_sum   'Ti4 Si4 C4 N4'
_cell_volume   170.19291686
_cell_formula_units_Z   4
loop_
 _symmetry_equiv_pos_site_id
 _symmetry_equiv_pos_as_xyz
  1  'x, y, z'
loop_
 _atom_site_type_symbol
 _atom_site_label
 _atom_site_symmetry_multiplicity
 _atom_site_fract_x
 _atom_site_fract_y
 _atom_site_fract_z
 _atom_site_occupancy
  Si  Si0  1  0.02441266  0.25132202  0.00000000  1
  Si  Si1  1  0.02441266  0.77309062  0.00000000  1
  Si  Si2  1  0.60041081  0.80020540  0.00000000  1
  Si  Si3  1  0.56635988  0.78317993  0.50000000  1
  C  C4  1  0.09823867  0.04911933  0.24068362  1
  C  C5  1  0.09823867  0.04911933  0.75931638  1
  C  C6  1  0.98904286  0.49452143  0.24476828  1
  C  C7  1  0.98904286  0.49452143  0.75523172  1
  Ti  Ti8  1  0.19010722  0.34850676  0.50000000  1
  Ti  Ti9  1  0.19010722  0.84160045  0.50000000  1
  Ti  Ti10  1  0.65896636  0.32948317  0.00000000  1
  Ti  Ti11  1  0.70117980  0.35058989  0.50000000  1
  N  N12  1  0.55070342  0.00246532  0.25664304  1
  N  N13  1  0.55070342  0.00246532  0.74335696  1
  N  N14  1  0.55070342  0.54823810  0.25664304  1
  N  N15  1  0.55070342  0.54823810  0.74335696  1
