# generated using pymatgen
data_TiCoCN
_symmetry_space_group_name_H-M   'P 1'
_cell_length_a   5.67489674
_cell_length_b   5.61305547
_cell_length_c   5.25628305
_cell_angle_alpha   90.00000000
_cell_angle_beta   90.00000000
_cell_angle_gamma   119.64016900
_symmetry_Int_Tables_number   1
_chemical_formula_structural   TiCoCN
_chemical_formula_sum   'Ti4 Co4 C4 N4'
_cell_volume   145.52244670
_cell_formula_units_Z   4
loop_
 _symmetry_equiv_pos_site_id
 _symmetry_equiv_pos_as_xyz
  1  'x, y, z'
loop_
 _atom_site_type_symbol
 _atom_site_label
 _atom_site_symmetry_multiplicity
 _atom_site_fract_x
 _atom_site_fract_y
 _atom_site_fract_z
 _atom_site_occupancy
  Co  Co0  1  0.16600995  0.32504348  0.00000000  1
  Co  Co1  1  0.16600995  0.84096647  0.00000000  1
  Co  Co2  1  0.63133513  0.81566756  0.00000000  1
  Co  Co3  1  0.71486614  0.85743306  0.50000000  1
  C  C4  1  0.96870914  0.98435457  0.21155648  1
  C  C5  1  0.96870914  0.98435457  0.78844352  1
  C  C6  1  0.01318602  0.50659301  0.22641605  1
  C  C7  1  0.01318602  0.50659301  0.77358395  1
  Ti  Ti8  1  0.18830328  0.34922434  0.50000000  1
  Ti  Ti9  1  0.18830328  0.83907893  0.50000000  1
  Ti  Ti10  1  0.66025492  0.33012746  0.00000000  1
  Ti  Ti11  1  0.67448156  0.33724078  0.50000000  1
  N  N12  1  0.49499469  0.00407176  0.24807042  1
  N  N13  1  0.49499469  0.00407176  0.75192958  1
  N  N14  1  0.49499469  0.49092293  0.24807042  1
  N  N15  1  0.49499469  0.49092293  0.75192958  1
