# generated using pymatgen
data_TiBCN
_symmetry_space_group_name_H-M   'P 1'
_cell_length_a   6.34052511
_cell_length_b   5.43847386
_cell_length_c   4.65326023
_cell_angle_alpha   90.00000000
_cell_angle_beta   90.00000000
_cell_angle_gamma   115.39562811
_symmetry_Int_Tables_number   1
_chemical_formula_structural   TiBCN
_chemical_formula_sum   'Ti4 B4 C4 N4'
_cell_volume   144.95203769
_cell_formula_units_Z   4
loop_
 _symmetry_equiv_pos_site_id
 _symmetry_equiv_pos_as_xyz
  1  'x, y, z'
loop_
 _atom_site_type_symbol
 _atom_site_label
 _atom_site_symmetry_multiplicity
 _atom_site_fract_x
 _atom_site_fract_y
 _atom_site_fract_z
 _atom_site_occupancy
  B  B0  1  0.07872439  0.29577486  -0.00000000  1
  B  B1  1  0.07872439  0.78294953  -0.00000000  1
  B  B2  1  0.56434074  0.78217036  -0.00000000  1
  B  B3  1  0.55279971  0.77639986  0.50000000  1
  C  C4  1  0.09182707  0.04591353  0.17311520  1
  C  C5  1  0.09182707  0.04591353  0.82688480  1
  C  C6  1  0.02793929  0.51396964  0.19421302  1
  C  C7  1  0.02793929  0.51396964  0.80578698  1
  Ti  Ti8  1  0.21568079  0.35715896  0.50000000  1
  Ti  Ti9  1  0.21568079  0.85852182  0.50000000  1
  Ti  Ti10  1  0.44498436  0.22249217  -0.00000000  1
  Ti  Ti11  1  0.71791979  0.35895990  0.50000000  1
  N  N12  1  0.55623642  0.98620200  0.25307662  1
  N  N13  1  0.55623642  0.98620200  0.74692338  1
  N  N14  1  0.55623642  0.57003442  0.25307662  1
  N  N15  1  0.55623642  0.57003442  0.74692338  1
