# generated using pymatgen
data_TiCrCN
_symmetry_space_group_name_H-M   'P 1'
_cell_length_a   5.64751066
_cell_length_b   5.60743911
_cell_length_c   5.32821439
_cell_angle_alpha   90.00000000
_cell_angle_beta   90.00000000
_cell_angle_gamma   119.76556119
_symmetry_Int_Tables_number   1
_chemical_formula_structural   TiCrCN
_chemical_formula_sum   'Ti4 Cr4 C4 N4'
_cell_volume   146.47215436
_cell_formula_units_Z   4
loop_
 _symmetry_equiv_pos_site_id
 _symmetry_equiv_pos_as_xyz
  1  'x, y, z'
loop_
 _atom_site_type_symbol
 _atom_site_label
 _atom_site_symmetry_multiplicity
 _atom_site_fract_x
 _atom_site_fract_y
 _atom_site_fract_z
 _atom_site_occupancy
  Cr  Cr0  1  0.16606398  0.33661710  -0.00000000  1
  Cr  Cr1  1  0.16606398  0.82944687  -0.00000000  1
  Cr  Cr2  1  0.66157448  0.83078723  -0.00000000  1
  Cr  Cr3  1  0.67155555  0.83577777  0.50000000  1
  C  C4  1  0.99086882  0.99543440  0.22816661  1
  C  C5  1  0.99086882  0.99543440  0.77183339  1
  C  C6  1  0.00718122  0.50359061  0.23215360  1
  C  C7  1  0.00718122  0.50359061  0.76784640  1
  Ti  Ti8  1  0.16829403  0.33909912  0.50000000  1
  Ti  Ti9  1  0.16829403  0.82919490  0.50000000  1
  Ti  Ti10  1  0.66138661  0.33069330  -0.00000000  1
  Ti  Ti11  1  0.67211748  0.33605873  0.50000000  1
  N  N12  1  0.50047079  0.99270234  0.24872845  1
  N  N13  1  0.50047079  0.99270234  0.75127155  1
  N  N14  1  0.50047079  0.50776845  0.24872845  1
  N  N15  1  0.50047079  0.50776845  0.75127155  1
