# generated using pymatgen
data_HfTiCN
_symmetry_space_group_name_H-M   'P 1'
_cell_length_a   6.15999682
_cell_length_b   6.15428851
_cell_length_c   5.59891057
_cell_angle_alpha   90.00000000
_cell_angle_beta   90.00000000
_cell_angle_gamma   119.96935066
_symmetry_Int_Tables_number   1
_chemical_formula_structural   HfTiCN
_chemical_formula_sum   'Hf4 Ti4 C4 N4'
_cell_volume   183.87663528
_cell_formula_units_Z   4
loop_
 _symmetry_equiv_pos_site_id
 _symmetry_equiv_pos_as_xyz
  1  'x, y, z'
loop_
 _atom_site_type_symbol
 _atom_site_label
 _atom_site_symmetry_multiplicity
 _atom_site_fract_x
 _atom_site_fract_y
 _atom_site_fract_z
 _atom_site_occupancy
  Hf  Hf0  1  0.17321022  0.33640878  0.00000000  1
  Hf  Hf1  1  0.17321022  0.83680143  0.00000000  1
  Hf  Hf2  1  0.67395526  0.83697763  0.00000000  1
  Hf  Hf3  1  0.65767113  0.82883556  0.50000000  1
  C  C4  1  0.00429177  0.00214589  0.26023503  1
  C  C5  1  0.00429177  0.00214589  0.73976497  1
  C  C6  1  0.98993658  0.49496829  0.26027865  1
  C  C7  1  0.98993658  0.49496829  0.73972135  1
  Ti  Ti8  1  0.15809443  0.32666241  0.50000000  1
  Ti  Ti9  1  0.15809443  0.83143201  0.50000000  1
  Ti  Ti10  1  0.67475969  0.33737984  0.00000000  1
  Ti  Ti11  1  0.66310601  0.33155299  0.50000000  1
  N  N12  1  0.50319381  0.00692951  0.25115729  1
  N  N13  1  0.50319381  0.00692951  0.74884271  1
  N  N14  1  0.50319381  0.49626430  0.25115729  1
  N  N15  1  0.50319381  0.49626430  0.74884271  1
