# generated using pymatgen
data_TiVCN
_symmetry_space_group_name_H-M   'P 1'
_cell_length_a   5.76994885
_cell_length_b   5.76275205
_cell_length_c   5.34039264
_cell_angle_alpha   90.00000000
_cell_angle_beta   90.00000000
_cell_angle_gamma   119.95874862
_symmetry_Int_Tables_number   1
_chemical_formula_structural   TiVCN
_chemical_formula_sum   'Ti4 V4 C4 N4'
_cell_volume   153.84595905
_cell_formula_units_Z   4
loop_
 _symmetry_equiv_pos_site_id
 _symmetry_equiv_pos_as_xyz
  1  'x, y, z'
loop_
 _atom_site_type_symbol
 _atom_site_label
 _atom_site_symmetry_multiplicity
 _atom_site_fract_x
 _atom_site_fract_y
 _atom_site_fract_z
 _atom_site_occupancy
  V  V0  1  0.16767914  0.33882954  -0.00000000  1
  V  V1  1  0.16767914  0.82884959  -0.00000000  1
  V  V2  1  0.66200635  0.83100317  -0.00000000  1
  V  V3  1  0.66951327  0.83475663  0.50000000  1
  C  C4  1  0.99203698  0.99601849  0.23649503  1
  C  C5  1  0.99203698  0.99601849  0.76350497  1
  C  C6  1  0.00539038  0.50269519  0.23747760  1
  C  C7  1  0.00539038  0.50269519  0.76252240  1
  Ti  Ti8  1  0.16628008  0.33416149  0.50000000  1
  Ti  Ti9  1  0.16628008  0.83211857  0.50000000  1
  Ti  Ti10  1  0.65795471  0.32897735  -0.00000000  1
  Ti  Ti11  1  0.67507057  0.33753528  0.50000000  1
  N  N12  1  0.50150382  0.99499419  0.25195185  1
  N  N13  1  0.50150382  0.99499419  0.74804815  1
  N  N14  1  0.50150382  0.50650962  0.25195185  1
  N  N15  1  0.50150382  0.50650962  0.74804815  1
