# generated using pymatgen
data_Ti3Nb(CN)2
_symmetry_space_group_name_H-M   'P 1'
_cell_length_a   5.96889190
_cell_length_b   5.96817449
_cell_length_c   5.48384937
_cell_angle_alpha   90.00000000
_cell_angle_beta   90.00000000
_cell_angle_gamma   119.99602423
_symmetry_Int_Tables_number   1
_chemical_formula_structural   Ti3Nb(CN)2
_chemical_formula_sum   'Ti6 Nb2 C4 N4'
_cell_volume   169.18769445
_cell_formula_units_Z   2
loop_
 _symmetry_equiv_pos_site_id
 _symmetry_equiv_pos_as_xyz
  1  'x, y, z'
loop_
 _atom_site_type_symbol
 _atom_site_label
 _atom_site_symmetry_multiplicity
 _atom_site_fract_x
 _atom_site_fract_y
 _atom_site_fract_z
 _atom_site_occupancy
  Ti  Ti0  1  0.16445319  0.32782617  -0.00000000  1
  Ti  Ti1  1  0.16445319  0.33662701  0.50000000  1
  Ti  Ti2  1  0.16445319  0.83662701  -0.00000000  1
  Ti  Ti3  1  0.16445319  0.82782617  0.50000000  1
  Ti  Ti4  1  0.66858416  0.33429208  0.50000000  1
  Ti  Ti5  1  0.66858416  0.83429208  -0.00000000  1
  C  C6  1  0.99867789  0.99933894  0.25189206  1
  C  C7  1  0.99867789  0.99933894  0.74810794  1
  C  C8  1  0.99867789  0.49933894  0.24810794  1
  C  C9  1  0.99867789  0.49933894  0.75189206  1
  Nb  Nb10  1  0.66911744  0.33455872  -0.00000000  1
  Nb  Nb11  1  0.66911744  0.83455872  0.50000000  1
  N  N12  1  0.50135147  0.00067574  0.25000000  1
  N  N13  1  0.50135147  0.00067574  0.75000000  1
  N  N14  1  0.50135147  0.50067574  0.25000000  1
  N  N15  1  0.50135147  0.50067574  0.75000000  1
