# generated using pymatgen
data_TiMoCN
_symmetry_space_group_name_H-M   'P 1'
_cell_length_a   5.82729276
_cell_length_b   5.83142206
_cell_length_c   5.55256369
_cell_angle_alpha   90.00000000
_cell_angle_beta   90.00000000
_cell_angle_gamma   120.02344358
_symmetry_Int_Tables_number   1
_chemical_formula_structural   TiMoCN
_chemical_formula_sum   'Ti4 Mo4 C4 N4'
_cell_volume   163.36644192
_cell_formula_units_Z   4
loop_
 _symmetry_equiv_pos_site_id
 _symmetry_equiv_pos_as_xyz
  1  'x, y, z'
loop_
 _atom_site_type_symbol
 _atom_site_label
 _atom_site_symmetry_multiplicity
 _atom_site_fract_x
 _atom_site_fract_y
 _atom_site_fract_z
 _atom_site_occupancy
  Mo  Mo0  1  0.16462619  0.33399459  0.00000000  1
  Mo  Mo1  1  0.16462619  0.83063158  0.00000000  1
  Mo  Mo2  1  0.66532584  0.83266291  0.00000000  1
  Mo  Mo3  1  0.66892621  0.83446310  0.50000000  1
  C  C4  1  0.99540607  0.99770304  0.24211838  1
  C  C5  1  0.99540607  0.99770304  0.75788162  1
  C  C6  1  0.00096704  0.50048353  0.24274210  1
  C  C7  1  0.00096704  0.50048353  0.75725790  1
  Ti  Ti8  1  0.16371191  0.33947748  0.50000000  1
  Ti  Ti9  1  0.16371191  0.82423442  0.50000000  1
  Ti  Ti10  1  0.66835236  0.33417618  0.00000000  1
  Ti  Ti11  1  0.67038944  0.33519471  0.50000000  1
  N  N12  1  0.50272927  0.00297212  0.25145534  1
  N  N13  1  0.50272927  0.00297212  0.74854466  1
  N  N14  1  0.50272927  0.49975715  0.25145534  1
  N  N15  1  0.50272927  0.49975715  0.74854466  1
