# generated using pymatgen
data_TiNbCN
_symmetry_space_group_name_H-M   'P 1'
_cell_length_a   5.98086005
_cell_length_b   5.99026603
_cell_length_c   5.57080228
_cell_angle_alpha   90.00000000
_cell_angle_beta   90.00000000
_cell_angle_gamma   120.05203749
_symmetry_Int_Tables_number   1
_chemical_formula_structural   TiNbCN
_chemical_formula_sum   'Ti4 Nb4 C4 N4'
_cell_volume   172.75481427
_cell_formula_units_Z   4
loop_
 _symmetry_equiv_pos_site_id
 _symmetry_equiv_pos_as_xyz
  1  'x, y, z'
loop_
 _atom_site_type_symbol
 _atom_site_label
 _atom_site_symmetry_multiplicity
 _atom_site_fract_x
 _atom_site_fract_y
 _atom_site_fract_z
 _atom_site_occupancy
  Nb  Nb0  1  0.16625706  0.33502421  0.00000000  1
  Nb  Nb1  1  0.16625706  0.83123285  0.00000000  1
  Nb  Nb2  1  0.66637760  0.83318879  0.00000000  1
  Nb  Nb3  1  0.66667902  0.83333951  0.50000000  1
  C  C4  1  0.99812098  0.99906049  0.25080967  1
  C  C5  1  0.99812098  0.99906049  0.74919033  1
  C  C6  1  0.99827547  0.49913774  0.25168545  1
  C  C7  1  0.99827547  0.49913774  0.74831455  1
  Ti  Ti8  1  0.16292063  0.33421744  0.50000000  1
  Ti  Ti9  1  0.16292063  0.82870319  0.50000000  1
  Ti  Ti10  1  0.66832699  0.33416349  0.00000000  1
  Ti  Ti11  1  0.67147011  0.33573505  0.50000000  1
  N  N12  1  0.50233283  0.00383727  0.25458422  1
  N  N13  1  0.50233283  0.00383727  0.74541578  1
  N  N14  1  0.50233283  0.49849557  0.25458422  1
  N  N15  1  0.50233283  0.49849557  0.74541578  1
