# generated using pymatgen
data_Ti3Mo(CN)2
_symmetry_space_group_name_H-M   'P 1'
_cell_length_a   5.88733051
_cell_length_b   5.86424812
_cell_length_c   5.48780529
_cell_angle_alpha   90.00000000
_cell_angle_beta   90.00000000
_cell_angle_gamma   119.87038923
_symmetry_Int_Tables_number   1
_chemical_formula_structural   Ti3Mo(CN)2
_chemical_formula_sum   'Ti6 Mo2 C4 N4'
_cell_volume   164.29555289
_cell_formula_units_Z   2
loop_
 _symmetry_equiv_pos_site_id
 _symmetry_equiv_pos_as_xyz
  1  'x, y, z'
loop_
 _atom_site_type_symbol
 _atom_site_label
 _atom_site_symmetry_multiplicity
 _atom_site_fract_x
 _atom_site_fract_y
 _atom_site_fract_z
 _atom_site_occupancy
  Ti  Ti0  1  0.16588006  0.32518286  -0.00000000  1
  Ti  Ti1  1  0.16588006  0.34069720  0.50000000  1
  Ti  Ti2  1  0.16588006  0.84069720  -0.00000000  1
  Ti  Ti3  1  0.16588006  0.82518286  0.50000000  1
  Ti  Ti4  1  0.66603594  0.33301796  0.50000000  1
  Ti  Ti5  1  0.66603594  0.83301796  -0.00000000  1
  C  C6  1  0.99519676  0.99759838  0.26232228  1
  C  C7  1  0.99519676  0.99759838  0.73767772  1
  C  C8  1  0.99519676  0.49759838  0.23767772  1
  C  C9  1  0.99519676  0.49759838  0.76232228  1
  Mo  Mo10  1  0.67584783  0.33792391  -0.00000000  1
  Mo  Mo11  1  0.67584783  0.83792391  0.50000000  1
  N  N12  1  0.50131463  0.00065732  0.25000000  1
  N  N13  1  0.50131463  0.00065732  0.75000000  1
  N  N14  1  0.50131463  0.50065732  0.25000000  1
  N  N15  1  0.50131463  0.50065732  0.75000000  1
