# generated using pymatgen
data_HfTi3(CN)2
_symmetry_space_group_name_H-M   'P 1'
_cell_length_a   6.05706316
_cell_length_b   6.07124738
_cell_length_c   5.48594590
_cell_angle_alpha   90.00000000
_cell_angle_beta   90.00000000
_cell_angle_gamma   120.07749527
_symmetry_Int_Tables_number   1
_chemical_formula_structural   HfTi3(CN)2
_chemical_formula_sum   'Hf2 Ti6 C4 N4'
_cell_volume   174.57518693
_cell_formula_units_Z   2
loop_
 _symmetry_equiv_pos_site_id
 _symmetry_equiv_pos_as_xyz
  1  'x, y, z'
loop_
 _atom_site_type_symbol
 _atom_site_label
 _atom_site_symmetry_multiplicity
 _atom_site_fract_x
 _atom_site_fract_y
 _atom_site_fract_z
 _atom_site_occupancy
  Ti  Ti0  1  0.16653161  0.33601894  0.00000000  1
  Ti  Ti1  1  0.16653161  0.33051266  0.50000000  1
  Ti  Ti2  1  0.16653161  0.83051266  0.00000000  1
  Ti  Ti3  1  0.16653161  0.83601894  0.50000000  1
  Ti  Ti4  1  0.66786767  0.33393383  0.50000000  1
  Ti  Ti5  1  0.66786767  0.83393383  0.00000000  1
  C  C6  1  0.00482428  0.00241214  0.23987931  1
  C  C7  1  0.00482428  0.00241214  0.76012069  1
  C  C8  1  0.00482428  0.50241214  0.26012069  1
  C  C9  1  0.00482428  0.50241214  0.73987931  1
  Hf  Hf10  1  0.66212670  0.33106334  0.00000000  1
  Hf  Hf11  1  0.66212670  0.83106334  0.50000000  1
  N  N12  1  0.49698027  0.99849014  0.25000000  1
  N  N13  1  0.49698027  0.99849014  0.75000000  1
  N  N14  1  0.49698027  0.49849014  0.25000000  1
  N  N15  1  0.49698027  0.49849014  0.75000000  1
