# generated using pymatgen
data_Ti3V(CN)2
_symmetry_space_group_name_H-M   'P 1'
_cell_length_a   5.86474466
_cell_length_b   5.84886274
_cell_length_c   5.36974885
_cell_angle_alpha   90.00000000
_cell_angle_beta   90.00000000
_cell_angle_gamma   119.91045945
_symmetry_Int_Tables_number   1
_chemical_formula_structural   Ti3V(CN)2
_chemical_formula_sum   'Ti6 V2 C4 N4'
_cell_volume   159.66005966
_cell_formula_units_Z   2
loop_
 _symmetry_equiv_pos_site_id
 _symmetry_equiv_pos_as_xyz
  1  'x, y, z'
loop_
 _atom_site_type_symbol
 _atom_site_label
 _atom_site_symmetry_multiplicity
 _atom_site_fract_x
 _atom_site_fract_y
 _atom_site_fract_z
 _atom_site_occupancy
  Ti  Ti0  1  0.16862846  0.32578246  -0.00000000  1
  Ti  Ti1  1  0.16862846  0.34284599  0.50000000  1
  Ti  Ti2  1  0.16862846  0.84284599  -0.00000000  1
  Ti  Ti3  1  0.16862846  0.82578246  0.50000000  1
  Ti  Ti4  1  0.66334272  0.33167136  0.50000000  1
  Ti  Ti5  1  0.66334272  0.83167136  -0.00000000  1
  C  C6  1  0.99038191  0.99519096  0.26404335  1
  C  C7  1  0.99038191  0.99519096  0.73595665  1
  C  C8  1  0.99038191  0.49519096  0.23595665  1
  C  C9  1  0.99038191  0.49519096  0.76404335  1
  V  V10  1  0.67320256  0.33660128  -0.00000000  1
  V  V11  1  0.67320256  0.83660128  0.50000000  1
  N  N12  1  0.50605033  0.00302517  0.25000000  1
  N  N13  1  0.50605033  0.00302517  0.75000000  1
  N  N14  1  0.50605033  0.50302517  0.25000000  1
  N  N15  1  0.50605033  0.50302517  0.75000000  1
