# generated using pymatgen
data_TiWCN
_symmetry_space_group_name_H-M   'P 1'
_cell_length_a   5.83283589
_cell_length_b   5.83845522
_cell_length_c   5.58639616
_cell_angle_alpha   90.00000000
_cell_angle_beta   90.00000000
_cell_angle_gamma   120.03187400
_symmetry_Int_Tables_number   1
_chemical_formula_structural   TiWCN
_chemical_formula_sum   'Ti4 W4 C4 N4'
_cell_volume   164.70261524
_cell_formula_units_Z   4
loop_
 _symmetry_equiv_pos_site_id
 _symmetry_equiv_pos_as_xyz
  1  'x, y, z'
loop_
 _atom_site_type_symbol
 _atom_site_label
 _atom_site_symmetry_multiplicity
 _atom_site_fract_x
 _atom_site_fract_y
 _atom_site_fract_z
 _atom_site_occupancy
  W  W0  1  0.16392634  0.33401051  0.00000000  1
  W  W1  1  0.16392634  0.82991583  0.00000000  1
  W  W2  1  0.66598311  0.83299155  0.00000000  1
  W  W3  1  0.67131155  0.83565577  0.50000000  1
  C  C4  1  0.99543018  0.99771509  0.24339933  1
  C  C5  1  0.99543018  0.99771509  0.75660067  1
  C  C6  1  0.00127188  0.50063594  0.24331221  1
  C  C7  1  0.00127188  0.50063594  0.75668779  1
  Ti  Ti8  1  0.16128396  0.33891937  0.50000000  1
  Ti  Ti9  1  0.16128396  0.82236457  0.50000000  1
  Ti  Ti10  1  0.66887433  0.33443717  0.00000000  1
  Ti  Ti11  1  0.67270562  0.33635280  0.50000000  1
  N  N12  1  0.50265850  0.99985466  0.25103479  1
  N  N13  1  0.50265850  0.99985466  0.74896521  1
  N  N14  1  0.50265850  0.50280384  0.25103479  1
  N  N15  1  0.50265850  0.50280384  0.74896521  1
