# generated using pymatgen
data_Ti3Al(CN)2
_symmetry_space_group_name_H-M   'P 1'
_cell_length_a   5.92725616
_cell_length_b   5.96269873
_cell_length_c   5.32759962
_cell_angle_alpha   90.00000000
_cell_angle_beta   90.00000000
_cell_angle_gamma   120.19800127
_symmetry_Int_Tables_number   1
_chemical_formula_structural   Ti3Al(CN)2
_chemical_formula_sum   'Ti6 Al2 C4 N4'
_cell_volume   162.73793884
_cell_formula_units_Z   2
loop_
 _symmetry_equiv_pos_site_id
 _symmetry_equiv_pos_as_xyz
  1  'x, y, z'
loop_
 _atom_site_type_symbol
 _atom_site_label
 _atom_site_symmetry_multiplicity
 _atom_site_fract_x
 _atom_site_fract_y
 _atom_site_fract_z
 _atom_site_occupancy
  Ti  Ti0  1  0.16946267  0.33777486  -0.00000000  1
  Ti  Ti1  1  0.16946267  0.33168780  0.50000000  1
  Ti  Ti2  1  0.16946267  0.83168780  -0.00000000  1
  Ti  Ti3  1  0.16946267  0.83777486  0.50000000  1
  Ti  Ti4  1  0.66379438  0.33189719  0.50000000  1
  Ti  Ti5  1  0.66379438  0.83189719  -0.00000000  1
  C  C6  1  0.99949344  0.99974671  0.24676728  1
  C  C7  1  0.99949344  0.99974671  0.75323272  1
  C  C8  1  0.99949344  0.49974671  0.25323272  1
  C  C9  1  0.99949344  0.49974671  0.74676728  1
  Al  Al10  1  0.66609762  0.33304880  -0.00000000  1
  Al  Al11  1  0.66609762  0.83304880  0.50000000  1
  N  N12  1  0.49943123  0.99971562  0.25000000  1
  N  N13  1  0.49943123  0.99971562  0.75000000  1
  N  N14  1  0.49943123  0.49971562  0.25000000  1
  N  N15  1  0.49943123  0.49971562  0.75000000  1
