# generated using pymatgen
data_ZrTi3(CN)2
_symmetry_space_group_name_H-M   'P 1'
_cell_length_a   6.07638844
_cell_length_b   6.09688083
_cell_length_c   5.49819685
_cell_angle_alpha   90.00000000
_cell_angle_beta   90.00000000
_cell_angle_gamma   120.11162303
_symmetry_Int_Tables_number   1
_chemical_formula_structural   ZrTi3(CN)2
_chemical_formula_sum   'Zr2 Ti6 C4 N4'
_cell_volume   176.20351310
_cell_formula_units_Z   2
loop_
 _symmetry_equiv_pos_site_id
 _symmetry_equiv_pos_as_xyz
  1  'x, y, z'
loop_
 _atom_site_type_symbol
 _atom_site_label
 _atom_site_symmetry_multiplicity
 _atom_site_fract_x
 _atom_site_fract_y
 _atom_site_fract_z
 _atom_site_occupancy
  Ti  Ti0  1  0.16756895  0.33682179  0.00000000  1
  Ti  Ti1  1  0.16756895  0.33074715  0.50000000  1
  Ti  Ti2  1  0.16756895  0.83074715  0.00000000  1
  Ti  Ti3  1  0.16756895  0.83682179  0.50000000  1
  Ti  Ti4  1  0.66577420  0.33288709  0.50000000  1
  Ti  Ti5  1  0.66577420  0.83288709  0.00000000  1
  C  C6  1  0.00733932  0.00366966  0.23721483  1
  C  C7  1  0.00733932  0.00366966  0.76278517  1
  C  C8  1  0.00733932  0.50366966  0.26278517  1
  C  C9  1  0.00733932  0.50366966  0.73721483  1
  Zr  Zr10  1  0.66299114  0.33149556  0.00000000  1
  Zr  Zr11  1  0.66299114  0.83149556  0.50000000  1
  N  N12  1  0.49404240  0.99702120  0.25000000  1
  N  N13  1  0.49404240  0.99702120  0.75000000  1
  N  N14  1  0.49404240  0.49702120  0.25000000  1
  N  N15  1  0.49404240  0.49702120  0.75000000  1
