# generated using pymatgen
data_Ti3W(CN)2
_symmetry_space_group_name_H-M   'P 1'
_cell_length_a   5.89458214
_cell_length_b   5.85200997
_cell_length_c   5.50840037
_cell_angle_alpha   90.00000000
_cell_angle_beta   90.00000000
_cell_angle_gamma   119.76137602
_symmetry_Int_Tables_number   1
_chemical_formula_structural   Ti3W(CN)2
_chemical_formula_sum   'Ti6 W2 C4 N4'
_cell_volume   164.95043815
_cell_formula_units_Z   2
loop_
 _symmetry_equiv_pos_site_id
 _symmetry_equiv_pos_as_xyz
  1  'x, y, z'
loop_
 _atom_site_type_symbol
 _atom_site_label
 _atom_site_symmetry_multiplicity
 _atom_site_fract_x
 _atom_site_fract_y
 _atom_site_fract_z
 _atom_site_occupancy
  Ti  Ti0  1  0.16531605  0.32355136  0.00000000  1
  Ti  Ti1  1  0.16531605  0.34176469  0.50000000  1
  Ti  Ti2  1  0.16531605  0.84176469  0.00000000  1
  Ti  Ti3  1  0.16531605  0.82355136  0.50000000  1
  Ti  Ti4  1  0.66788325  0.33394162  0.50000000  1
  Ti  Ti5  1  0.66788325  0.83394162  0.00000000  1
  C  C6  1  0.99346324  0.99673162  0.26241427  1
  C  C7  1  0.99346324  0.99673162  0.73758573  1
  C  C8  1  0.99346324  0.49673162  0.23758573  1
  C  C9  1  0.99346324  0.49673162  0.76241427  1
  W  W10  1  0.67592987  0.33796494  0.00000000  1
  W  W11  1  0.67592987  0.83796494  0.50000000  1
  N  N12  1  0.50264748  0.00132374  0.25000000  1
  N  N13  1  0.50264748  0.00132374  0.75000000  1
  N  N14  1  0.50264748  0.50132374  0.25000000  1
  N  N15  1  0.50264748  0.50132374  0.75000000  1
