# generated using pymatgen
data_YTi3(CN)2
_symmetry_space_group_name_H-M   'P 1'
_cell_length_a   6.21644022
_cell_length_b   6.24056877
_cell_length_c   5.52276512
_cell_angle_alpha   90.00000000
_cell_angle_beta   90.00000000
_cell_angle_gamma   120.12847932
_symmetry_Int_Tables_number   1
_chemical_formula_structural   YTi3(CN)2
_chemical_formula_sum   'Y2 Ti6 C4 N4'
_cell_volume   185.30597657
_cell_formula_units_Z   2
loop_
 _symmetry_equiv_pos_site_id
 _symmetry_equiv_pos_as_xyz
  1  'x, y, z'
loop_
 _atom_site_type_symbol
 _atom_site_label
 _atom_site_symmetry_multiplicity
 _atom_site_fract_x
 _atom_site_fract_y
 _atom_site_fract_z
 _atom_site_occupancy
  Ti  Ti0  1  0.17918600  0.34573728  0.00000000  1
  Ti  Ti1  1  0.17918600  0.33344871  0.50000000  1
  Ti  Ti2  1  0.17918600  0.83344871  0.00000000  1
  Ti  Ti3  1  0.17918600  0.84573728  0.50000000  1
  Ti  Ti4  1  0.65327045  0.32663522  0.50000000  1
  Ti  Ti5  1  0.65327045  0.82663522  0.00000000  1
  C  C6  1  0.01254954  0.00627477  0.21327515  1
  C  C7  1  0.01254954  0.00627477  0.78672485  1
  C  C8  1  0.01254954  0.50627477  0.28672485  1
  C  C9  1  0.01254954  0.50627477  0.71327515  1
  Y  Y10  1  0.66831148  0.33415573  0.00000000  1
  Y  Y11  1  0.66831148  0.83415573  0.50000000  1
  N  N12  1  0.48080685  0.99040343  0.25000000  1
  N  N13  1  0.48080685  0.99040343  0.75000000  1
  N  N14  1  0.48080685  0.49040343  0.25000000  1
  N  N15  1  0.48080685  0.49040343  0.75000000  1
