# generated using pymatgen
data_Ti3Os(CN)2
_symmetry_space_group_name_H-M   'P 1'
_cell_length_a   5.80492053
_cell_length_b   5.79500967
_cell_length_c   5.51384226
_cell_angle_alpha   90.00000000
_cell_angle_beta   90.00000000
_cell_angle_gamma   119.94353840
_symmetry_Int_Tables_number   1
_chemical_formula_structural   Ti3Os(CN)2
_chemical_formula_sum   'Ti6 Os2 C4 N4'
_cell_volume   160.72455100
_cell_formula_units_Z   2
loop_
 _symmetry_equiv_pos_site_id
 _symmetry_equiv_pos_as_xyz
  1  'x, y, z'
loop_
 _atom_site_type_symbol
 _atom_site_label
 _atom_site_symmetry_multiplicity
 _atom_site_fract_x
 _atom_site_fract_y
 _atom_site_fract_z
 _atom_site_occupancy
  Ti  Ti0  1  0.16281021  0.32874023  -0.00000000  1
  Ti  Ti1  1  0.16281021  0.33406998  0.50000000  1
  Ti  Ti2  1  0.16281021  0.83406998  -0.00000000  1
  Ti  Ti3  1  0.16281021  0.82874023  0.50000000  1
  Ti  Ti4  1  0.67709956  0.33854978  0.50000000  1
  Ti  Ti5  1  0.67709956  0.83854978  -0.00000000  1
  C  C6  1  0.99619504  0.99809753  0.26045692  1
  C  C7  1  0.99619504  0.99809753  0.73954308  1
  C  C8  1  0.99619504  0.49809753  0.23954308  1
  C  C9  1  0.99619504  0.49809753  0.76045692  1
  Os  Os10  1  0.67412385  0.33706191  -0.00000000  1
  Os  Os11  1  0.67412385  0.83706191  0.50000000  1
  N  N12  1  0.49871638  0.99935819  0.25000000  1
  N  N13  1  0.49871638  0.99935819  0.75000000  1
  N  N14  1  0.49871638  0.49935819  0.25000000  1
  N  N15  1  0.49871638  0.49935819  0.75000000  1
