# generated using pymatgen
data_Ti3Si(CN)2
_symmetry_space_group_name_H-M   'P 1'
_cell_length_a   5.86382686
_cell_length_b   6.04660474
_cell_length_c   5.28492202
_cell_angle_alpha   90.00000000
_cell_angle_beta   90.00000000
_cell_angle_gamma   121.03657890
_symmetry_Int_Tables_number   1
_chemical_formula_structural   Ti3Si(CN)2
_chemical_formula_sum   'Ti6 Si2 C4 N4'
_cell_volume   160.55734581
_cell_formula_units_Z   2
loop_
 _symmetry_equiv_pos_site_id
 _symmetry_equiv_pos_as_xyz
  1  'x, y, z'
loop_
 _atom_site_type_symbol
 _atom_site_label
 _atom_site_symmetry_multiplicity
 _atom_site_fract_x
 _atom_site_fract_y
 _atom_site_fract_z
 _atom_site_occupancy
  Ti  Ti0  1  0.17046643  0.33012199  -0.00000000  1
  Ti  Ti1  1  0.17046643  0.34034442  0.50000000  1
  Ti  Ti2  1  0.17046643  0.84034442  -0.00000000  1
  Ti  Ti3  1  0.17046643  0.83012199  0.50000000  1
  Ti  Ti4  1  0.65432330  0.32716164  0.50000000  1
  Ti  Ti5  1  0.65432330  0.82716164  -0.00000000  1
  C  C6  1  0.99246063  0.99623032  0.25873433  1
  C  C7  1  0.99246063  0.99623032  0.74126567  1
  C  C8  1  0.99246063  0.49623032  0.24126567  1
  C  C9  1  0.99246063  0.49623032  0.75873433  1
  Si  Si10  1  0.68491112  0.34245556  -0.00000000  1
  Si  Si11  1  0.68491112  0.84245556  0.50000000  1
  N  N12  1  0.50078906  0.00039454  0.25000000  1
  N  N13  1  0.50078906  0.00039454  0.75000000  1
  N  N14  1  0.50078906  0.50039454  0.25000000  1
  N  N15  1  0.50078906  0.50039454  0.75000000  1
