# generated using pymatgen
data_Ti3Mn(CN)2
_symmetry_space_group_name_H-M   'P 1'
_cell_length_a   5.77237460
_cell_length_b   5.70317709
_cell_length_c   5.37176979
_cell_angle_alpha   90.00000000
_cell_angle_beta   90.00000000
_cell_angle_gamma   119.60423599
_symmetry_Int_Tables_number   1
_chemical_formula_structural   Ti3Mn(CN)2
_chemical_formula_sum   'Ti6 Mn2 C4 N4'
_cell_volume   153.75794602
_cell_formula_units_Z   2
loop_
 _symmetry_equiv_pos_site_id
 _symmetry_equiv_pos_as_xyz
  1  'x, y, z'
loop_
 _atom_site_type_symbol
 _atom_site_label
 _atom_site_symmetry_multiplicity
 _atom_site_fract_x
 _atom_site_fract_y
 _atom_site_fract_z
 _atom_site_occupancy
  Ti  Ti0  1  0.16797485  0.32768364  -0.00000000  1
  Ti  Ti1  1  0.16797485  0.34029120  0.50000000  1
  Ti  Ti2  1  0.16797485  0.84029120  -0.00000000  1
  Ti  Ti3  1  0.16797485  0.82768364  0.50000000  1
  Ti  Ti4  1  0.66836908  0.33418453  0.50000000  1
  Ti  Ti5  1  0.66836908  0.83418453  -0.00000000  1
  C  C6  1  0.98931167  0.99465584  0.27004432  1
  C  C7  1  0.98931167  0.99465584  0.72995568  1
  C  C8  1  0.98931167  0.49465584  0.22995568  1
  C  C9  1  0.98931167  0.49465584  0.77004432  1
  Mn  Mn10  1  0.67783098  0.33891549  -0.00000000  1
  Mn  Mn11  1  0.67783098  0.83891549  0.50000000  1
  N  N12  1  0.50294679  0.00147340  0.25000000  1
  N  N13  1  0.50294679  0.00147340  0.75000000  1
  N  N14  1  0.50294679  0.50147340  0.25000000  1
  N  N15  1  0.50294679  0.50147340  0.75000000  1
