# generated using pymatgen
data_Ti3Re(CN)2
_symmetry_space_group_name_H-M   'P 1'
_cell_length_a   5.84551919
_cell_length_b   5.77159491
_cell_length_c   5.51897599
_cell_angle_alpha   90.00000000
_cell_angle_beta   90.00000000
_cell_angle_gamma   119.58253771
_symmetry_Int_Tables_number   1
_chemical_formula_structural   Ti3Re(CN)2
_chemical_formula_sum   'Ti6 Re2 C4 N4'
_cell_volume   161.92714410
_cell_formula_units_Z   2
loop_
 _symmetry_equiv_pos_site_id
 _symmetry_equiv_pos_as_xyz
  1  'x, y, z'
loop_
 _atom_site_type_symbol
 _atom_site_label
 _atom_site_symmetry_multiplicity
 _atom_site_fract_x
 _atom_site_fract_y
 _atom_site_fract_z
 _atom_site_occupancy
  Ti  Ti0  1  0.16420032  0.32657608  0.00000000  1
  Ti  Ti1  1  0.16420032  0.33762424  0.50000000  1
  Ti  Ti2  1  0.16420032  0.83762424  0.00000000  1
  Ti  Ti3  1  0.16420032  0.82657608  0.50000000  1
  Ti  Ti4  1  0.67380301  0.33690150  0.50000000  1
  Ti  Ti5  1  0.67380301  0.83690150  0.00000000  1
  C  C6  1  0.99419433  0.99709717  0.26464553  1
  C  C7  1  0.99419433  0.99709717  0.73535447  1
  C  C8  1  0.99419433  0.49709717  0.23535447  1
  C  C9  1  0.99419433  0.49709717  0.76464553  1
  Re  Re10  1  0.67619771  0.33809885  0.00000000  1
  Re  Re11  1  0.67619771  0.83809885  0.50000000  1
  N  N12  1  0.49993833  0.99996917  0.25000000  1
  N  N13  1  0.49993833  0.99996917  0.75000000  1
  N  N14  1  0.49993833  0.49996917  0.25000000  1
  N  N15  1  0.49993833  0.49996917  0.75000000  1
