# generated using pymatgen
data_Ti3Fe(CN)2
_symmetry_space_group_name_H-M   'P 1'
_cell_length_a   5.75543498
_cell_length_b   5.74579622
_cell_length_c   5.35659726
_cell_angle_alpha   90.00000000
_cell_angle_beta   90.00000000
_cell_angle_gamma   119.94461614
_symmetry_Int_Tables_number   1
_chemical_formula_structural   Ti3Fe(CN)2
_chemical_formula_sum   'Ti6 Fe2 C4 N4'
_cell_volume   153.49353939
_cell_formula_units_Z   2
loop_
 _symmetry_equiv_pos_site_id
 _symmetry_equiv_pos_as_xyz
  1  'x, y, z'
loop_
 _atom_site_type_symbol
 _atom_site_label
 _atom_site_symmetry_multiplicity
 _atom_site_fract_x
 _atom_site_fract_y
 _atom_site_fract_z
 _atom_site_occupancy
  Ti  Ti0  1  0.16682717  0.33002744  -0.00000000  1
  Ti  Ti1  1  0.16682717  0.33679972  0.50000000  1
  Ti  Ti2  1  0.16682717  0.83679972  -0.00000000  1
  Ti  Ti3  1  0.16682717  0.83002744  0.50000000  1
  Ti  Ti4  1  0.67078963  0.33539481  0.50000000  1
  Ti  Ti5  1  0.67078963  0.83539481  -0.00000000  1
  C  C6  1  0.99224896  0.99612448  0.26604162  1
  C  C7  1  0.99224896  0.99612448  0.73395838  1
  C  C8  1  0.99224896  0.49612448  0.23395838  1
  C  C9  1  0.99224896  0.49612448  0.76604162  1
  Fe  Fe10  1  0.67233817  0.33616908  -0.00000000  1
  Fe  Fe11  1  0.67233817  0.83616908  0.50000000  1
  N  N12  1  0.50269331  0.00134665  0.25000000  1
  N  N13  1  0.50269331  0.00134665  0.75000000  1
  N  N14  1  0.50269331  0.50134665  0.25000000  1
  N  N15  1  0.50269331  0.50134665  0.75000000  1
