# generated using pymatgen
data_TiNiCN
_symmetry_space_group_name_H-M   'P 1'
_cell_length_a   5.74510171
_cell_length_b   5.70731292
_cell_length_c   5.33294646
_cell_angle_alpha   90.00000000
_cell_angle_beta   90.00000000
_cell_angle_gamma   119.78265330
_symmetry_Int_Tables_number   1
_chemical_formula_structural   TiNiCN
_chemical_formula_sum   'Ti4 Ni4 C4 N4'
_cell_volume   151.76592121
_cell_formula_units_Z   4
loop_
 _symmetry_equiv_pos_site_id
 _symmetry_equiv_pos_as_xyz
  1  'x, y, z'
loop_
 _atom_site_type_symbol
 _atom_site_label
 _atom_site_symmetry_multiplicity
 _atom_site_fract_x
 _atom_site_fract_y
 _atom_site_fract_z
 _atom_site_occupancy
  Ni  Ni0  1  0.16173730  0.34225898  -0.00000000  1
  Ni  Ni1  1  0.16173730  0.81947831  -0.00000000  1
  Ni  Ni2  1  0.71710136  0.85855067  -0.00000000  1
  Ni  Ni3  1  0.69434374  0.84717186  0.50000000  1
  C  C4  1  0.98541919  0.99270959  0.24114033  1
  C  C5  1  0.98541919  0.99270959  0.75885967  1
  C  C6  1  0.99824973  0.49912486  0.22750043  1
  C  C7  1  0.99824973  0.49912486  0.77249957  1
  Ti  Ti8  1  0.18632111  0.34670274  0.50000000  1
  Ti  Ti9  1  0.18632111  0.83961836  0.50000000  1
  Ti  Ti10  1  0.64487027  0.32243513  -0.00000000  1
  Ti  Ti11  1  0.66907719  0.33453859  0.50000000  1
  N  N12  1  0.48612154  0.00836300  0.25500481  1
  N  N13  1  0.48612154  0.00836300  0.74499519  1
  N  N14  1  0.48612154  0.47775854  0.25500481  1
  N  N15  1  0.48612154  0.47775854  0.74499519  1
