# generated using pymatgen
data_TiOsCN
_symmetry_space_group_name_H-M   'P 1'
_cell_length_a   5.76277391
_cell_length_b   5.74214688
_cell_length_c   5.57892503
_cell_angle_alpha   90.00000000
_cell_angle_beta   90.00000000
_cell_angle_gamma   119.88166624
_symmetry_Int_Tables_number   1
_chemical_formula_structural   TiOsCN
_chemical_formula_sum   'Ti4 Os4 C4 N4'
_cell_volume   160.06768305
_cell_formula_units_Z   4
loop_
 _symmetry_equiv_pos_site_id
 _symmetry_equiv_pos_as_xyz
  1  'x, y, z'
loop_
 _atom_site_type_symbol
 _atom_site_label
 _atom_site_symmetry_multiplicity
 _atom_site_fract_x
 _atom_site_fract_y
 _atom_site_fract_z
 _atom_site_occupancy
  Os  Os0  1  0.16264236  0.33079120  0.00000000  1
  Os  Os1  1  0.16264236  0.83185115  0.00000000  1
  Os  Os2  1  0.64839121  0.82419560  0.00000000  1
  Os  Os3  1  0.68809161  0.84404581  0.50000000  1
  C  C4  1  0.98617971  0.99308985  0.24063957  1
  C  C5  1  0.98617971  0.99308985  0.75936043  1
  C  C6  1  0.00405909  0.50202954  0.24041939  1
  C  C7  1  0.00405909  0.50202954  0.75958061  1
  Ti  Ti8  1  0.18248304  0.34629388  0.50000000  1
  Ti  Ti9  1  0.18248304  0.83618915  0.50000000  1
  Ti  Ti10  1  0.66521711  0.33260855  0.00000000  1
  Ti  Ti11  1  0.67383709  0.33691854  0.50000000  1
  N  N12  1  0.49676699  0.01112468  0.25185893  1
  N  N13  1  0.49676699  0.01112468  0.74814107  1
  N  N14  1  0.49676699  0.48564230  0.25185893  1
  N  N15  1  0.49676699  0.48564230  0.74814107  1
