# generated using pymatgen
data_Ti3Ni(CN)2
_symmetry_space_group_name_H-M   'P 1'
_cell_length_a   5.82452507
_cell_length_b   5.88458391
_cell_length_c   5.35700306
_cell_angle_alpha   90.00000000
_cell_angle_beta   90.00000000
_cell_angle_gamma   120.34168768
_symmetry_Int_Tables_number   1
_chemical_formula_structural   Ti3Ni(CN)2
_chemical_formula_sum   'Ti6 Ni2 C4 N4'
_cell_volume   158.46128640
_cell_formula_units_Z   2
loop_
 _symmetry_equiv_pos_site_id
 _symmetry_equiv_pos_as_xyz
  1  'x, y, z'
loop_
 _atom_site_type_symbol
 _atom_site_label
 _atom_site_symmetry_multiplicity
 _atom_site_fract_x
 _atom_site_fract_y
 _atom_site_fract_z
 _atom_site_occupancy
  Ti  Ti0  1  0.16764762  0.33589013  -0.00000000  1
  Ti  Ti1  1  0.16764762  0.33175748  0.50000000  1
  Ti  Ti2  1  0.16764762  0.83175748  -0.00000000  1
  Ti  Ti3  1  0.16764762  0.83589013  0.50000000  1
  Ti  Ti4  1  0.66242219  0.33121109  0.50000000  1
  Ti  Ti5  1  0.66242219  0.83121109  -0.00000000  1
  C  C6  1  0.99539942  0.99769971  0.26012054  1
  C  C7  1  0.99539942  0.99769971  0.73987946  1
  C  C8  1  0.99539942  0.49769971  0.23987946  1
  C  C9  1  0.99539942  0.49769971  0.76012054  1
  Ni  Ni10  1  0.69150927  0.34575462  -0.00000000  1
  Ni  Ni11  1  0.69150927  0.84575462  0.50000000  1
  N  N12  1  0.49332058  0.99666028  0.25000000  1
  N  N13  1  0.49332058  0.99666028  0.75000000  1
  N  N14  1  0.49332058  0.49666028  0.25000000  1
  N  N15  1  0.49332058  0.49666028  0.75000000  1
