# generated using pymatgen
data_Ti3B(CN)2
_symmetry_space_group_name_H-M   'P 1'
_cell_length_a   6.02180054
_cell_length_b   6.07028875
_cell_length_c   5.41630905
_cell_angle_alpha   90.00000000
_cell_angle_beta   90.00000000
_cell_angle_gamma   120.26672112
_symmetry_Int_Tables_number   1
_chemical_formula_structural   Ti3B(CN)2
_chemical_formula_sum   'Ti6 B2 C4 N4'
_cell_volume   171.00006050
_cell_formula_units_Z   2
loop_
 _symmetry_equiv_pos_site_id
 _symmetry_equiv_pos_as_xyz
  1  'x, y, z'
loop_
 _atom_site_type_symbol
 _atom_site_label
 _atom_site_symmetry_multiplicity
 _atom_site_fract_x
 _atom_site_fract_y
 _atom_site_fract_z
 _atom_site_occupancy
  Ti  Ti0  1  0.17448859  0.31748961  -0.00000000  1
  Ti  Ti1  1  0.17448859  0.35699896  0.50000000  1
  Ti  Ti2  1  0.17448859  0.85699896  -0.00000000  1
  Ti  Ti3  1  0.17448859  0.81748961  0.50000000  1
  Ti  Ti4  1  0.61887105  0.30943552  0.50000000  1
  Ti  Ti5  1  0.61887105  0.80943552  -0.00000000  1
  C  C6  1  0.96796251  0.98398125  0.25046268  1
  C  C7  1  0.96796251  0.98398125  0.74953732  1
  C  C8  1  0.96796251  0.48398125  0.24953732  1
  C  C9  1  0.96796251  0.48398125  0.75046268  1
  B  B10  1  0.87052573  0.43526286  -0.00000000  1
  B  B11  1  0.87052573  0.93526286  0.50000000  1
  N  N12  1  0.44618385  0.97309193  0.25000000  1
  N  N13  1  0.44618385  0.97309193  0.75000000  1
  N  N14  1  0.44618385  0.47309193  0.25000000  1
  N  N15  1  0.44618385  0.47309193  0.75000000  1
