# generated using pymatgen
data_Ti3Co(CN)2
_symmetry_space_group_name_H-M   'P 1'
_cell_length_a   5.77099556
_cell_length_b   5.81081957
_cell_length_c   5.35179383
_cell_angle_alpha   90.00000000
_cell_angle_beta   90.00000000
_cell_angle_gamma   120.22853770
_symmetry_Int_Tables_number   1
_chemical_formula_structural   Ti3Co(CN)2
_chemical_formula_sum   'Ti6 Co2 C4 N4'
_cell_volume   155.06485862
_cell_formula_units_Z   2
loop_
 _symmetry_equiv_pos_site_id
 _symmetry_equiv_pos_as_xyz
  1  'x, y, z'
loop_
 _atom_site_type_symbol
 _atom_site_label
 _atom_site_symmetry_multiplicity
 _atom_site_fract_x
 _atom_site_fract_y
 _atom_site_fract_z
 _atom_site_occupancy
  Ti  Ti0  1  0.16721943  0.33320898  0.00000000  1
  Ti  Ti1  1  0.16721943  0.33401044  0.50000000  1
  Ti  Ti2  1  0.16721943  0.83401044  0.00000000  1
  Ti  Ti3  1  0.16721943  0.83320898  0.50000000  1
  Ti  Ti4  1  0.66715915  0.33357957  0.50000000  1
  Ti  Ti5  1  0.66715915  0.83357957  0.00000000  1
  C  C6  1  0.99367335  0.99683667  0.26361292  1
  C  C7  1  0.99367335  0.99683667  0.73638708  1
  C  C8  1  0.99367335  0.49683667  0.23638708  1
  C  C9  1  0.99367335  0.49683667  0.76361292  1
  Co  Co10  1  0.67654527  0.33827263  0.00000000  1
  Co  Co11  1  0.67654527  0.83827263  0.50000000  1
  N  N12  1  0.50058835  0.00029417  0.25000000  1
  N  N13  1  0.50058835  0.00029417  0.75000000  1
  N  N14  1  0.50058835  0.50029417  0.25000000  1
  N  N15  1  0.50058835  0.50029417  0.75000000  1
