# generated using pymatgen
data_MnFe35
_symmetry_space_group_name_H-M   'P 1'
_cell_length_a   8.50870723
_cell_length_b   8.50870723
_cell_length_c   5.67247149
_cell_angle_alpha   90.00000000
_cell_angle_beta   90.00000000
_cell_angle_gamma   90.00000000
_symmetry_Int_Tables_number   1
_chemical_formula_structural   MnFe35
_chemical_formula_sum   'Mn1 Fe35'
_cell_volume   410.67615095
_cell_formula_units_Z   1
loop_
 _symmetry_equiv_pos_site_id
 _symmetry_equiv_pos_as_xyz
  1  'x, y, z'
loop_
 _atom_site_type_symbol
 _atom_site_label
 _atom_site_symmetry_multiplicity
 _atom_site_fract_x
 _atom_site_fract_y
 _atom_site_fract_z
 _atom_site_occupancy
  Fe  Fe0  1  -0.00035544  0.00035175  0.00000032  1
  Fe  Fe1  1  0.16732441  0.16665675  0.25124944  1
  Fe  Fe2  1  0.00053172  -0.00053530  0.49999978  1
  Fe  Fe3  1  0.16732440  0.16665676  0.74875052  1
  Fe  Fe4  1  -0.00035319  0.33298001  0.00000026  1
  Fe  Fe5  1  0.16646228  0.49980590  0.24866368  1
  Fe  Fe6  1  0.00055112  0.33388073  0.49999981  1
  Fe  Fe7  1  0.16646235  0.49980592  0.75133618  1
  Fe  Fe8  1  -0.00007877  0.66667008  0.00000034  1
  Fe  Fe9  1  0.16645154  0.83354689  0.24864820  1
  Fe  Fe10  1  0.00093586  0.66667186  0.49999990  1
  Fe  Fe11  1  0.16645160  0.83354691  0.75135169  1
  Fe  Fe12  1  0.33333176  0.00007527  -0.00000027  1
  Fe  Fe13  1  0.49932767  0.16665506  0.25124230  1
  Fe  Fe14  1  0.33333219  -0.00094187  0.49999977  1
  Fe  Fe15  1  0.49932766  0.16665503  0.74875769  1
  Fe  Fe16  1  0.33332547  0.33324033  0.00000031  1
  Fe  Fe17  1  0.50019796  0.49980451  0.24866672  1
  Fe  Fe18  1  0.33332366  0.33425439  0.49999993  1
  Fe  Fe19  1  0.50019796  0.49980460  0.75133316  1
  Fe  Fe20  1  0.33332482  0.66667650  0.00000002  1
  Fe  Fe21  1  0.50019762  0.83353721  0.24866453  1
  Fe  Fe22  1  0.50019762  0.83353716  0.75133533  1
  Fe  Fe23  1  0.66702238  0.00035073  0.00000034  1
  Fe  Fe24  1  0.83334485  0.16665115  0.25144331  1
  Fe  Fe25  1  0.66612161  -0.00055346  0.49999977  1
  Fe  Fe26  1  0.83334488  0.16665114  0.74855661  1
  Fe  Fe27  1  0.66702774  0.33297344  0.00000035  1
  Fe  Fe28  1  0.83334285  0.50067608  0.25124229  1
  Fe  Fe29  1  0.66613400  0.33386713  0.49999976  1
  Fe  Fe30  1  0.83334282  0.50067608  0.74875765  1
  Fe  Fe31  1  0.66676190  0.66667602  0.00000031  1
  Fe  Fe32  1  0.83334115  0.83267536  0.25124941  1
  Fe  Fe33  1  0.66574702  0.66667832  0.49999981  1
  Fe  Fe34  1  0.83334110  0.83267538  0.74875058  1
  Mn  Mn35  1  0.33333544  0.66666619  0.50000020  1
