# generated using pymatgen
data_V2C
_symmetry_space_group_name_H-M   'P 1'
_cell_length_a   4.69711134
_cell_length_b   4.69711134
_cell_length_c   4.69711134
_cell_angle_alpha   35.70895096
_cell_angle_beta   35.70895096
_cell_angle_gamma   35.70895094
_symmetry_Int_Tables_number   1
_chemical_formula_structural   V2C
_chemical_formula_sum   'V2 C1'
_cell_volume   31.56085248
_cell_formula_units_Z   1
loop_
 _symmetry_equiv_pos_site_id
 _symmetry_equiv_pos_as_xyz
  1  'x, y, z'
loop_
 _atom_site_type_symbol
 _atom_site_label
 _atom_site_symmetry_multiplicity
 _atom_site_fract_x
 _atom_site_fract_y
 _atom_site_fract_z
 _atom_site_occupancy
  C  C0  1  0.50000000  0.50000000  0.50000000  1
  V  V1  1  0.75053008  0.75053008  0.75053008  1
  V  V2  1  0.24946992  0.24946992  0.24946992  1
