# generated using pymatgen
data_ZrB2
_symmetry_space_group_name_H-M   'P 1'
_cell_length_a   3.17200693
_cell_length_b   3.17200659
_cell_length_c   3.54175147
_cell_angle_alpha   90.00423019
_cell_angle_beta   89.99577143
_cell_angle_gamma   119.99969271
_symmetry_Int_Tables_number   1
_chemical_formula_structural   ZrB2
_chemical_formula_sum   'Zr1 B2'
_cell_volume   30.86158776
_cell_formula_units_Z   1
loop_
 _symmetry_equiv_pos_site_id
 _symmetry_equiv_pos_as_xyz
  1  'x, y, z'
loop_
 _atom_site_type_symbol
 _atom_site_label
 _atom_site_symmetry_multiplicity
 _atom_site_fract_x
 _atom_site_fract_y
 _atom_site_fract_z
 _atom_site_occupancy
  Zr  Zr0  1  0.00000000  0.00000000  0.00000000  1
  B  B1  1  0.33333389  0.66666609  0.49999676  1
  B  B2  1  0.66666611  0.33333391  0.50000324  1
