# generated using pymatgen
data_Hf3ZrB8
_symmetry_space_group_name_H-M   'P 1'
_cell_length_a   6.30139712
_cell_length_b   6.30139710
_cell_length_c   6.99843848
_cell_angle_alpha   90.00000000
_cell_angle_beta   90.00000000
_cell_angle_gamma   119.98549887
_symmetry_Int_Tables_number   1
_chemical_formula_structural   Hf3ZrB8
_chemical_formula_sum   'Hf6 Zr2 B16'
_cell_volume   240.69602693
_cell_formula_units_Z   2
loop_
 _symmetry_equiv_pos_site_id
 _symmetry_equiv_pos_as_xyz
  1  'x, y, z'
loop_
 _atom_site_type_symbol
 _atom_site_label
 _atom_site_symmetry_multiplicity
 _atom_site_fract_x
 _atom_site_fract_y
 _atom_site_fract_z
 _atom_site_occupancy
  Hf  Hf0  1  0.00000000  0.00000000  0.00000000  1
  Hf  Hf1  1  0.00000000  0.50000000  0.00000000  1
  Hf  Hf2  1  0.00000000  0.50000000  0.50000000  1
  Hf  Hf3  1  0.50000000  0.00000000  0.00000000  1
  Hf  Hf4  1  0.50000000  0.00000000  0.50000000  1
  Hf  Hf5  1  0.50000000  0.50000000  0.50000000  1
  B  B6  1  0.16632037  0.33367963  0.25000000  1
  B  B7  1  0.33367963  0.16632037  0.25000000  1
  B  B8  1  0.16632037  0.33367963  0.75000000  1
  B  B9  1  0.33367963  0.16632037  0.75000000  1
  B  B10  1  0.16698096  0.83301903  0.24956670  1
  B  B11  1  0.33301904  0.66698097  0.25043330  1
  B  B12  1  0.16698096  0.83301903  0.75043330  1
  B  B13  1  0.33301904  0.66698097  0.74956670  1
  B  B14  1  0.66698097  0.33301904  0.25043330  1
  B  B15  1  0.83301903  0.16698096  0.24956670  1
  B  B16  1  0.66698097  0.33301904  0.74956670  1
  B  B17  1  0.83301903  0.16698096  0.75043330  1
  B  B18  1  0.66632038  0.83367962  0.25000000  1
  B  B19  1  0.83367962  0.66632038  0.25000000  1
  B  B20  1  0.66632038  0.83367962  0.75000000  1
  B  B21  1  0.83367962  0.66632038  0.75000000  1
  Zr  Zr22  1  0.00000000  0.00000000  0.50000000  1
  Zr  Zr23  1  0.50000000  0.50000000  0.00000000  1
