# generated using pymatgen
data_ZrAl3B8
_symmetry_space_group_name_H-M   'P 1'
_cell_length_a   6.10153575
_cell_length_b   6.04117700
_cell_length_c   6.86342167
_cell_angle_alpha   90.00000000
_cell_angle_beta   90.00000000
_cell_angle_gamma   120.33106091
_symmetry_Int_Tables_number   1
_chemical_formula_structural   ZrAl3B8
_chemical_formula_sum   'Zr2 Al6 B16'
_cell_volume   218.36023046
_cell_formula_units_Z   2
loop_
 _symmetry_equiv_pos_site_id
 _symmetry_equiv_pos_as_xyz
  1  'x, y, z'
loop_
 _atom_site_type_symbol
 _atom_site_label
 _atom_site_symmetry_multiplicity
 _atom_site_fract_x
 _atom_site_fract_y
 _atom_site_fract_z
 _atom_site_occupancy
  Al  Al0  1  0.00000000  0.00000000  0.00000000  1
  Al  Al1  1  0.00000000  0.50000000  0.00000000  1
  Al  Al2  1  0.00000000  0.50000000  0.50000000  1
  Al  Al3  1  0.50000000  0.00000000  0.00000000  1
  Al  Al4  1  0.50000000  0.50000000  0.00000000  1
  Al  Al5  1  0.50000000  0.50000000  0.50000000  1
  B  B6  1  0.16686848  0.33373698  0.23410509  1
  B  B7  1  0.33387456  0.16774910  0.23568979  1
  B  B8  1  0.16686848  0.33373698  0.76589491  1
  B  B9  1  0.33387456  0.16774910  0.76431021  1
  B  B10  1  0.16612544  0.83225089  0.23568979  1
  B  B11  1  0.33313152  0.66626303  0.23410509  1
  B  B12  1  0.16612544  0.83225089  0.76431021  1
  B  B13  1  0.33313152  0.66626303  0.76589491  1
  B  B14  1  0.66686849  0.33373698  0.23410509  1
  B  B15  1  0.83387455  0.16774910  0.23568979  1
  B  B16  1  0.66686849  0.33373698  0.76589491  1
  B  B17  1  0.83387455  0.16774910  0.76431021  1
  B  B18  1  0.66612545  0.83225089  0.23568979  1
  B  B19  1  0.83313151  0.66626303  0.23410509  1
  B  B20  1  0.66612545  0.83225089  0.76431021  1
  B  B21  1  0.83313151  0.66626303  0.76589491  1
  Zr  Zr22  1  0.00000000  0.00000000  0.50000000  1
  Zr  Zr23  1  0.50000000  0.00000000  0.50000000  1
