# generated using pymatgen
data_ZrB8Mo3
_symmetry_space_group_name_H-M   'P 1'
_cell_length_a   6.12574061
_cell_length_b   6.12574058
_cell_length_c   6.75456305
_cell_angle_alpha   90.00000000
_cell_angle_beta   90.00000000
_cell_angle_gamma   120.06017105
_symmetry_Int_Tables_number   1
_chemical_formula_structural   ZrB8Mo3
_chemical_formula_sum   'Zr2 B16 Mo6'
_cell_volume   219.37213051
_cell_formula_units_Z   2
loop_
 _symmetry_equiv_pos_site_id
 _symmetry_equiv_pos_as_xyz
  1  'x, y, z'
loop_
 _atom_site_type_symbol
 _atom_site_label
 _atom_site_symmetry_multiplicity
 _atom_site_fract_x
 _atom_site_fract_y
 _atom_site_fract_z
 _atom_site_occupancy
  Mo  Mo0  1  0.00000000  0.00000000  0.00000000  1
  Mo  Mo1  1  0.00000000  0.00000000  0.50000000  1
  Mo  Mo2  1  0.00000000  0.50000000  0.00000000  1
  Mo  Mo3  1  0.50000000  0.00000000  0.50000000  1
  Mo  Mo4  1  0.50000000  0.50000000  0.00000000  1
  Mo  Mo5  1  0.50000000  0.50000000  0.50000000  1
  B  B6  1  0.16816695  0.33183305  0.24921387  1
  B  B7  1  0.33183305  0.16816695  0.25078613  1
  B  B8  1  0.16816695  0.33183305  0.75078613  1
  B  B9  1  0.33183305  0.16816695  0.74921387  1
  B  B10  1  0.16504896  0.83495103  0.25000000  1
  B  B11  1  0.33495104  0.66504897  0.25000000  1
  B  B12  1  0.16504896  0.83495103  0.75000000  1
  B  B13  1  0.33495104  0.66504897  0.75000000  1
  B  B14  1  0.66504897  0.33495104  0.25000000  1
  B  B15  1  0.83495103  0.16504896  0.25000000  1
  B  B16  1  0.66504897  0.33495104  0.75000000  1
  B  B17  1  0.83495103  0.16504896  0.75000000  1
  B  B18  1  0.66816696  0.83183304  0.25078613  1
  B  B19  1  0.83183304  0.66816696  0.24921387  1
  B  B20  1  0.66816696  0.83183304  0.74921387  1
  B  B21  1  0.83183304  0.66816696  0.75078613  1
  Zr  Zr22  1  0.00000000  0.50000000  0.50000000  1
  Zr  Zr23  1  0.50000000  0.00000000  0.00000000  1
