# generated using pymatgen
data_ZrV3B8
_symmetry_space_group_name_H-M   'P 1'
_cell_length_a   6.08005540
_cell_length_b   6.08005539
_cell_length_c   6.36137884
_cell_angle_alpha   90.00000000
_cell_angle_beta   90.00000000
_cell_angle_gamma   119.91755944
_symmetry_Int_Tables_number   1
_chemical_formula_structural   ZrV3B8
_chemical_formula_sum   'Zr2 V6 B16'
_cell_volume   203.82485596
_cell_formula_units_Z   2
loop_
 _symmetry_equiv_pos_site_id
 _symmetry_equiv_pos_as_xyz
  1  'x, y, z'
loop_
 _atom_site_type_symbol
 _atom_site_label
 _atom_site_symmetry_multiplicity
 _atom_site_fract_x
 _atom_site_fract_y
 _atom_site_fract_z
 _atom_site_occupancy
  V  V0  1  0.00000000  0.00000000  0.00000000  1
  V  V1  1  0.00000000  0.00000000  0.50000000  1
  V  V2  1  0.00000000  0.50000000  0.00000000  1
  V  V3  1  0.50000000  0.00000000  0.00000000  1
  V  V4  1  0.50000000  0.50000000  0.00000000  1
  V  V5  1  0.50000000  0.50000000  0.50000000  1
  B  B6  1  0.16835846  0.33164154  0.23915336  1
  B  B7  1  0.33164154  0.16835846  0.23915336  1
  B  B8  1  0.16835846  0.33164154  0.76084664  1
  B  B9  1  0.33164154  0.16835846  0.76084664  1
  B  B10  1  0.16483594  0.83516405  0.23510241  1
  B  B11  1  0.33516406  0.66483595  0.23510241  1
  B  B12  1  0.16483594  0.83516405  0.76489759  1
  B  B13  1  0.33516406  0.66483595  0.76489759  1
  B  B14  1  0.66483595  0.33516406  0.23510241  1
  B  B15  1  0.83516405  0.16483594  0.23510241  1
  B  B16  1  0.66483595  0.33516406  0.76489759  1
  B  B17  1  0.83516405  0.16483594  0.76489759  1
  B  B18  1  0.66835847  0.83164153  0.23915336  1
  B  B19  1  0.83164153  0.66835847  0.23915336  1
  B  B20  1  0.66835847  0.83164153  0.76084664  1
  B  B21  1  0.83164153  0.66835847  0.76084664  1
  Zr  Zr22  1  0.00000000  0.50000000  0.50000000  1
  Zr  Zr23  1  0.50000000  0.00000000  0.50000000  1
