# generated using pymatgen
data_ZrNb3B8
_symmetry_space_group_name_H-M   'P 1'
_cell_length_a   6.24842760
_cell_length_b   6.24881372
_cell_length_c   6.74478320
_cell_angle_alpha   90.00000000
_cell_angle_beta   90.00000000
_cell_angle_gamma   119.99795576
_symmetry_Int_Tables_number   1
_chemical_formula_structural   ZrNb3B8
_chemical_formula_sum   'Zr2 Nb6 B16'
_cell_volume   228.07405949
_cell_formula_units_Z   2
loop_
 _symmetry_equiv_pos_site_id
 _symmetry_equiv_pos_as_xyz
  1  'x, y, z'
loop_
 _atom_site_type_symbol
 _atom_site_label
 _atom_site_symmetry_multiplicity
 _atom_site_fract_x
 _atom_site_fract_y
 _atom_site_fract_z
 _atom_site_occupancy
  Nb  Nb0  1  0.00000000  0.00000000  0.00000000  1
  Nb  Nb1  1  0.00000000  0.00000000  0.50000000  1
  Nb  Nb2  1  0.00000000  0.50000000  0.50000000  1
  Nb  Nb3  1  0.50000000  0.00000000  0.00000000  1
  Nb  Nb4  1  0.50000000  0.00000000  0.50000000  1
  Nb  Nb5  1  0.50000000  0.50000000  0.00000000  1
  B  B6  1  0.16586246  0.33172494  0.25000000  1
  B  B7  1  0.33272450  0.16544896  0.24882957  1
  B  B8  1  0.16586246  0.33172494  0.75000000  1
  B  B9  1  0.33272450  0.16544896  0.75117043  1
  B  B10  1  0.16727550  0.83455103  0.25117043  1
  B  B11  1  0.33413754  0.66827507  0.25000000  1
  B  B12  1  0.16727550  0.83455103  0.74882957  1
  B  B13  1  0.33413754  0.66827507  0.75000000  1
  B  B14  1  0.66586247  0.33172494  0.25000000  1
  B  B15  1  0.83272449  0.16544896  0.25117043  1
  B  B16  1  0.66586247  0.33172494  0.75000000  1
  B  B17  1  0.83272449  0.16544896  0.74882957  1
  B  B18  1  0.66727551  0.83455103  0.24882957  1
  B  B19  1  0.83413753  0.66827507  0.25000000  1
  B  B20  1  0.66727551  0.83455103  0.75117043  1
  B  B21  1  0.83413753  0.66827507  0.75000000  1
  Zr  Zr22  1  0.00000000  0.50000000  0.00000000  1
  Zr  Zr23  1  0.50000000  0.50000000  0.50000000  1
