# generated using pymatgen
data_ZrCr3B8
_symmetry_space_group_name_H-M   'P 1'
_cell_length_a   6.01669096
_cell_length_b   6.01669094
_cell_length_c   6.35921191
_cell_angle_alpha   90.00000000
_cell_angle_beta   90.00000000
_cell_angle_gamma   120.00930710
_symmetry_Int_Tables_number   1
_chemical_formula_structural   ZrCr3B8
_chemical_formula_sum   'Zr2 Cr6 B16'
_cell_volume   199.34649320
_cell_formula_units_Z   2
loop_
 _symmetry_equiv_pos_site_id
 _symmetry_equiv_pos_as_xyz
  1  'x, y, z'
loop_
 _atom_site_type_symbol
 _atom_site_label
 _atom_site_symmetry_multiplicity
 _atom_site_fract_x
 _atom_site_fract_y
 _atom_site_fract_z
 _atom_site_occupancy
  Cr  Cr0  1  0.00000000  0.00000000  0.00000000  1
  Cr  Cr1  1  0.00000000  0.00000000  0.50000000  1
  Cr  Cr2  1  0.00000000  0.50000000  0.00000000  1
  Cr  Cr3  1  0.50000000  0.00000000  0.50000000  1
  Cr  Cr4  1  0.50000000  0.50000000  0.00000000  1
  Cr  Cr5  1  0.50000000  0.50000000  0.50000000  1
  B  B6  1  0.16904392  0.33095608  0.24534617  1
  B  B7  1  0.33095608  0.16904392  0.25465383  1
  B  B8  1  0.16904392  0.33095608  0.75465383  1
  B  B9  1  0.33095608  0.16904392  0.74534617  1
  B  B10  1  0.16322757  0.83677242  0.25000000  1
  B  B11  1  0.33677243  0.66322758  0.25000000  1
  B  B12  1  0.16322757  0.83677242  0.75000000  1
  B  B13  1  0.33677243  0.66322758  0.75000000  1
  B  B14  1  0.66322758  0.33677243  0.25000000  1
  B  B15  1  0.83677242  0.16322757  0.25000000  1
  B  B16  1  0.66322758  0.33677243  0.75000000  1
  B  B17  1  0.83677242  0.16322757  0.75000000  1
  B  B18  1  0.66904393  0.83095607  0.25465383  1
  B  B19  1  0.83095607  0.66904393  0.24534617  1
  B  B20  1  0.66904393  0.83095607  0.74534617  1
  B  B21  1  0.83095607  0.66904393  0.75465383  1
  Zr  Zr22  1  0.00000000  0.50000000  0.50000000  1
  Zr  Zr23  1  0.50000000  0.00000000  0.00000000  1
