# generated using pymatgen
data_V3C2
_symmetry_space_group_name_H-M   'P 1'
_cell_length_a   2.92390037
_cell_length_b   4.11406654
_cell_length_c   8.78490263
_cell_angle_alpha   90.00000000
_cell_angle_beta   90.00000000
_cell_angle_gamma   90.00000000
_symmetry_Int_Tables_number   1
_chemical_formula_structural   V3C2
_chemical_formula_sum   'V6 C4'
_cell_volume   105.67465389
_cell_formula_units_Z   2
loop_
 _symmetry_equiv_pos_site_id
 _symmetry_equiv_pos_as_xyz
  1  'x, y, z'
loop_
 _atom_site_type_symbol
 _atom_site_label
 _atom_site_symmetry_multiplicity
 _atom_site_fract_x
 _atom_site_fract_y
 _atom_site_fract_z
 _atom_site_occupancy
  C  C0  1  0.50000000  0.00000000  0.83599174  1
  C  C1  1  0.50000000  0.00000000  0.16400826  1
  C  C2  1  0.00000000  0.50000000  0.33599174  1
  C  C3  1  0.00000000  0.50000000  0.66400826  1
  V  V4  1  0.00000000  0.00000000  0.31784860  1
  V  V5  1  0.00000000  0.00000000  0.68215140  1
  V  V6  1  0.50000000  0.50000000  0.81784860  1
  V  V7  1  0.50000000  0.50000000  0.18215140  1
  V  V8  1  0.00000000  0.00000000  0.00000000  1
  V  V9  1  0.50000000  0.50000000  0.50000000  1
