# generated using pymatgen
data_V4C3
_symmetry_space_group_name_H-M   'P 1'
_cell_length_a   9.58231591
_cell_length_b   2.93681185
_cell_length_c   5.05345266
_cell_angle_alpha   90.00000000
_cell_angle_beta   79.41792294
_cell_angle_gamma   90.00000000
_symmetry_Int_Tables_number   1
_chemical_formula_structural   V4C3
_chemical_formula_sum   'V8 C6'
_cell_volume   139.79291666
_cell_formula_units_Z   2
loop_
 _symmetry_equiv_pos_site_id
 _symmetry_equiv_pos_as_xyz
  1  'x, y, z'
loop_
 _atom_site_type_symbol
 _atom_site_label
 _atom_site_symmetry_multiplicity
 _atom_site_fract_x
 _atom_site_fract_y
 _atom_site_fract_z
 _atom_site_occupancy
  C  C0  1  0.75073543  0.00000000  0.24788573  1
  C  C1  1  0.24926457  0.00000000  0.75211427  1
  C  C2  1  0.25073543  0.50000000  0.24788573  1
  C  C3  1  0.74926457  0.50000000  0.75211427  1
  C  C4  1  0.00000000  0.00000000  0.50000000  1
  C  C5  1  0.50000000  0.50000000  0.50000000  1
  V  V6  1  0.86576158  0.00000000  0.86646269  1
  V  V7  1  0.13423842  0.00000000  0.13353731  1
  V  V8  1  0.36576158  0.50000000  0.86646269  1
  V  V9  1  0.63423842  0.50000000  0.13353731  1
  V  V10  1  0.37470069  0.00000000  0.38741493  1
  V  V11  1  0.62529931  0.00000000  0.61258507  1
  V  V12  1  0.87470069  0.50000000  0.38741493  1
  V  V13  1  0.12529931  0.50000000  0.61258507  1
