# generated using pymatgen
data_V4C3
_symmetry_space_group_name_H-M   'P 1'
_cell_length_a   9.63019760
_cell_length_b   2.95156330
_cell_length_c   5.08145251
_cell_angle_alpha   90.00000000
_cell_angle_beta   79.25732471
_cell_angle_gamma   90.00000000
_symmetry_Int_Tables_number   1
_chemical_formula_structural   V4C3
_chemical_formula_sum   'V8 C6'
_cell_volume   141.90455673
_cell_formula_units_Z   2
loop_
 _symmetry_equiv_pos_site_id
 _symmetry_equiv_pos_as_xyz
  1  'x, y, z'
loop_
 _atom_site_type_symbol
 _atom_site_label
 _atom_site_symmetry_multiplicity
 _atom_site_fract_x
 _atom_site_fract_y
 _atom_site_fract_z
 _atom_site_occupancy
  C  C0  1  0.75124403  0.00000000  0.24787606  1
  C  C1  1  0.24875597  0.00000000  0.75212394  1
  C  C2  1  0.25124403  0.50000000  0.24787606  1
  C  C3  1  0.74875597  0.50000000  0.75212394  1
  C  C4  1  0.00000000  0.00000000  0.50000000  1
  C  C5  1  0.50000000  0.50000000  0.50000000  1
  V  V6  1  0.86469679  0.00000000  0.86519304  1
  V  V7  1  0.13530321  0.00000000  0.13480696  1
  V  V8  1  0.36469679  0.50000000  0.86519304  1
  V  V9  1  0.63530321  0.50000000  0.13480696  1
  V  V10  1  0.37468941  0.00000000  0.38864492  1
  V  V11  1  0.62531059  0.00000000  0.61135508  1
  V  V12  1  0.87468941  0.50000000  0.38864492  1
  V  V13  1  0.12531059  0.50000000  0.61135508  1
