# generated using pymatgen
data_Hf3ZrC4
_symmetry_space_group_name_H-M   'P 1'
_cell_length_a   9.32566360
_cell_length_b   9.32566360
_cell_length_c   4.66174707
_cell_angle_alpha   90.00000000
_cell_angle_beta   90.00000000
_cell_angle_gamma   89.99994747
_symmetry_Int_Tables_number   1
_chemical_formula_structural   Hf3ZrC4
_chemical_formula_sum   'Hf12 Zr4 C16'
_cell_volume   405.42282655
_cell_formula_units_Z   4
loop_
 _symmetry_equiv_pos_site_id
 _symmetry_equiv_pos_as_xyz
  1  'x, y, z'
loop_
 _atom_site_type_symbol
 _atom_site_label
 _atom_site_symmetry_multiplicity
 _atom_site_fract_x
 _atom_site_fract_y
 _atom_site_fract_z
 _atom_site_occupancy
  Zr  Zr0  1  0.99957374  0.00042626  0.00000000  1
  Zr  Zr1  1  0.24983837  0.49922629  0.50000000  1
  Zr  Zr2  1  0.24981851  0.75018149  0.00000000  1
  Zr  Zr3  1  0.50077371  0.75016163  0.50000000  1
  Hf  Hf4  1  0.99955269  0.25018589  0.50000000  1
  Hf  Hf5  1  0.25019318  0.00075921  0.50000000  1
  Hf  Hf6  1  0.25017930  0.24981674  0.00000000  1
  Hf  Hf7  1  0.99919842  0.49958525  0.00000000  1
  Hf  Hf8  1  0.99924079  0.74980682  0.50000000  1
  Hf  Hf9  1  0.50041475  0.00080158  0.00000000  1
  Hf  Hf10  1  0.50043996  0.24984102  0.50000000  1
  Hf  Hf11  1  0.74981411  0.00044731  0.50000000  1
  Hf  Hf12  1  0.74982408  0.25017592  0.00000000  1
  Hf  Hf13  1  0.50079593  0.49920407  0.00000000  1
  Hf  Hf14  1  0.75015898  0.49956004  0.50000000  1
  Hf  Hf15  1  0.75018326  0.74982070  0.00000000  1
  C  C16  1  0.24993590  0.24865673  0.50000000  1
  C  C17  1  0.25139667  0.00158989  0.00000000  1
  C  C18  1  0.99972988  0.25134607  0.00000000  1
  C  C19  1  0.99972171  0.00027829  0.50000000  1
  C  C20  1  0.24858662  0.75141338  0.50000000  1
  C  C21  1  0.25007060  0.49840684  0.00000000  1
  C  C22  1  0.99841011  0.74860333  0.00000000  1
  C  C23  1  0.99842934  0.49973360  0.50000000  1
  C  C24  1  0.75006038  0.24993962  0.50000000  1
  C  C25  1  0.74865393  0.00027012  0.00000000  1
  C  C26  1  0.50027461  0.25005982  0.00000000  1
  C  C27  1  0.50026640  0.00157066  0.50000000  1
  C  C28  1  0.75134327  0.75006410  0.50000000  1
  C  C29  1  0.74994018  0.49972539  0.00000000  1
  C  C30  1  0.50159316  0.74992940  0.00000000  1
  C  C31  1  0.50158746  0.49841254  0.50000000  1
