# generated using pymatgen
data_Hf7ZrC8
_symmetry_space_group_name_H-M   'P 1'
_cell_length_a   9.30774956
_cell_length_b   9.30797780
_cell_length_c   4.65283716
_cell_angle_alpha   90.00000000
_cell_angle_beta   90.00000000
_cell_angle_gamma   90.00000000
_symmetry_Int_Tables_number   1
_chemical_formula_structural   Hf7ZrC8
_chemical_formula_sum   'Hf14 Zr2 C16'
_cell_volume   403.10471829
_cell_formula_units_Z   2
loop_
 _symmetry_equiv_pos_site_id
 _symmetry_equiv_pos_as_xyz
  1  'x, y, z'
loop_
 _atom_site_type_symbol
 _atom_site_label
 _atom_site_symmetry_multiplicity
 _atom_site_fract_x
 _atom_site_fract_y
 _atom_site_fract_z
 _atom_site_occupancy
  Hf  Hf0  1  0.99990884  0.00000000  0.00000000  1
  Hf  Hf1  1  0.99972649  0.24925507  0.50000000  1
  Hf  Hf2  1  0.25009122  0.00000000  0.50000000  1
  Hf  Hf3  1  0.25027352  0.24925505  0.00000000  1
  Hf  Hf4  1  0.99972649  0.75074493  0.50000000  1
  Hf  Hf5  1  0.25027352  0.75074495  0.00000000  1
  Hf  Hf6  1  0.50009219  0.00000000  0.00000000  1
  Hf  Hf7  1  0.50027695  0.24963258  0.50000000  1
  Hf  Hf8  1  0.74990780  0.00000000  0.50000000  1
  Hf  Hf9  1  0.74972302  0.24963259  0.00000000  1
  Hf  Hf10  1  0.50044820  0.50000000  0.00000000  1
  Hf  Hf11  1  0.50027695  0.75036742  0.50000000  1
  Hf  Hf12  1  0.74955180  0.50000000  0.50000000  1
  Hf  Hf13  1  0.74972302  0.75036741  0.00000000  1
  C  C14  1  0.25006299  0.24843564  0.50000000  1
  C  C15  1  0.25011219  0.00000000  0.00000000  1
  C  C16  1  0.99993701  0.24843562  0.00000000  1
  C  C17  1  0.99988779  0.00000000  0.50000000  1
  C  C18  1  0.25006299  0.75156436  0.50000000  1
  C  C19  1  0.25151493  0.50000000  0.00000000  1
  C  C20  1  0.99993701  0.75156438  0.00000000  1
  C  C21  1  0.99848508  0.50000000  0.50000000  1
  C  C22  1  0.74993566  0.24982529  0.50000000  1
  C  C23  1  0.74989126  0.00000000  0.00000000  1
  C  C24  1  0.50006434  0.24982530  0.00000000  1
  C  C25  1  0.50010876  0.00000000  0.50000000  1
  C  C26  1  0.74993566  0.75017471  0.50000000  1
  C  C27  1  0.74850214  0.50000000  0.00000000  1
  C  C28  1  0.50006434  0.75017470  0.00000000  1
  C  C29  1  0.50149787  0.50000000  0.50000000  1
  Zr  Zr30  1  0.99954131  0.50000000  0.00000000  1
  Zr  Zr31  1  0.25045870  0.50000000  0.50000000  1
