# generated using pymatgen
data_Hf9Zr7C16
_symmetry_space_group_name_H-M   'P 1'
_cell_length_a   9.34904685
_cell_length_b   9.34951580
_cell_length_c   4.67364738
_cell_angle_alpha   90.00000000
_cell_angle_beta   90.00000000
_cell_angle_gamma   90.00140777
_symmetry_Int_Tables_number   1
_chemical_formula_structural   Hf9Zr7C16
_chemical_formula_sum   'Hf9 Zr7 C16'
_cell_volume   408.51913005
_cell_formula_units_Z   1
loop_
 _symmetry_equiv_pos_site_id
 _symmetry_equiv_pos_as_xyz
  1  'x, y, z'
loop_
 _atom_site_type_symbol
 _atom_site_label
 _atom_site_symmetry_multiplicity
 _atom_site_fract_x
 _atom_site_fract_y
 _atom_site_fract_z
 _atom_site_occupancy
  Hf  Hf0  1  0.00032043  0.99982161  0.00000000  1
  Hf  Hf1  1  0.25045585  0.00017440  0.50000000  1
  Hf  Hf2  1  0.25075984  0.24911661  0.00000000  1
  Hf  Hf3  1  0.00013196  0.75107877  0.50000000  1
  Hf  Hf4  1  0.49967369  0.00019282  0.00000000  1
  Hf  Hf5  1  0.49952695  0.24922159  0.50000000  1
  Hf  Hf6  1  0.74954694  0.99983773  0.50000000  1
  Hf  Hf7  1  0.49970059  0.49980928  0.00000000  1
  Hf  Hf8  1  0.49986798  0.75078460  0.50000000  1
  Zr  Zr9  1  0.00048560  0.24888871  0.50000000  1
  Zr  Zr10  1  0.00030505  0.50017898  0.00000000  1
  Zr  Zr11  1  0.25075225  0.49981453  0.50000000  1
  Zr  Zr12  1  0.25040864  0.75090674  0.00000000  1
  Zr  Zr13  1  0.74921965  0.24914170  0.00000000  1
  Zr  Zr14  1  0.74925228  0.50016518  0.50000000  1
  Zr  Zr15  1  0.74959366  0.75086063  0.00000000  1
  C  C16  1  0.25159084  0.24823820  0.50000000  1
  C  C17  1  0.25027799  0.00133808  0.00000000  1
  C  C18  1  0.00152092  0.24827550  0.00000000  1
  C  C19  1  0.00010496  0.99865984  0.50000000  1
  C  C20  1  0.25027651  0.75177876  0.50000000  1
  C  C21  1  0.25161390  0.49857212  0.00000000  1
  C  C22  1  0.00016462  0.75172156  0.00000000  1
  C  C23  1  0.00010748  0.50145058  0.50000000  1
  C  C24  1  0.74837382  0.24821131  0.50000000  1
  C  C25  1  0.74972611  0.00005317  0.00000000  1
  C  C26  1  0.49854965  0.24961813  0.00000000  1
  C  C27  1  0.49989122  0.99993570  0.50000000  1
  C  C28  1  0.74972141  0.75177699  0.50000000  1
  C  C29  1  0.74835452  0.49993111  0.00000000  1
  C  C30  1  0.49983611  0.75037730  0.00000000  1
  C  C31  1  0.49988855  0.50006775  0.50000000  1
