# generated using pymatgen
data_Hf11Zr5C16
_symmetry_space_group_name_H-M   'P 1'
_cell_length_a   9.33326621
_cell_length_b   9.33416591
_cell_length_c   4.66575947
_cell_angle_alpha   90.00000000
_cell_angle_beta   90.00000000
_cell_angle_gamma   89.99711924
_symmetry_Int_Tables_number   1
_chemical_formula_structural   Hf11Zr5C16
_chemical_formula_sum   'Hf11 Zr5 C16'
_cell_volume   406.47282418
_cell_formula_units_Z   1
loop_
 _symmetry_equiv_pos_site_id
 _symmetry_equiv_pos_as_xyz
  1  'x, y, z'
loop_
 _atom_site_type_symbol
 _atom_site_label
 _atom_site_symmetry_multiplicity
 _atom_site_fract_x
 _atom_site_fract_y
 _atom_site_fract_z
 _atom_site_occupancy
  Hf  Hf0  1  0.99986245  0.00033428  0.00000000  1
  Hf  Hf1  1  0.99971029  0.24911372  0.50000000  1
  Hf  Hf2  1  0.24999998  0.99999995  0.50000000  1
  Hf  Hf3  1  0.24963241  0.24885454  0.00000000  1
  Hf  Hf4  1  0.25036759  0.75114545  0.00000000  1
  Hf  Hf5  1  0.50013757  0.99966573  0.00000000  1
  Hf  Hf6  1  0.75000002  0.00000000  0.50000000  1
  Hf  Hf7  1  0.75036829  0.24921857  0.00000000  1
  Hf  Hf8  1  0.50028969  0.75088631  0.50000000  1
  Hf  Hf9  1  0.75000006  0.50000000  0.50000000  1
  Hf  Hf10  1  0.74963169  0.75078142  0.00000000  1
  C  C11  1  0.24867489  0.24829238  0.50000000  1
  C  C12  1  0.25000002  0.00000001  0.00000000  1
  C  C13  1  0.99989685  0.24825281  0.00000000  1
  C  C14  1  0.99982513  0.00128050  0.50000000  1
  C  C15  1  0.25132512  0.75170763  0.50000000  1
  C  C16  1  0.25000000  0.50000000  0.00000000  1
  C  C17  1  0.99989721  0.75177717  0.00000000  1
  C  C18  1  0.99848625  0.49864520  0.50000000  1
  C  C19  1  0.75128978  0.24961096  0.50000000  1
  C  C20  1  0.75000000  0.00000001  0.00000000  1
  C  C21  1  0.50010276  0.24822287  0.00000000  1
  C  C22  1  0.50017487  0.99871951  0.50000000  1
  C  C23  1  0.74871018  0.75038905  0.50000000  1
  C  C24  1  0.74999999  0.49999999  0.00000000  1
  C  C25  1  0.50010317  0.75174715  0.00000000  1
  C  C26  1  0.50151373  0.50135480  0.50000000  1
  Zr  Zr27  1  0.99954004  0.49965428  0.00000000  1
  Zr  Zr28  1  0.99970072  0.75090515  0.50000000  1
  Zr  Zr29  1  0.24999993  0.50000004  0.50000000  1
  Zr  Zr30  1  0.50029933  0.24909478  0.50000000  1
  Zr  Zr31  1  0.50045998  0.50034574  0.00000000  1
