# generated using pymatgen
data_Hf5Zr3C8
_symmetry_space_group_name_H-M   'P 1'
_cell_length_a   9.34299690
_cell_length_b   9.34069871
_cell_length_c   4.66964330
_cell_angle_alpha   90.00000000
_cell_angle_beta   90.00000000
_cell_angle_gamma   90.00000000
_symmetry_Int_Tables_number   1
_chemical_formula_structural   Hf5Zr3C8
_chemical_formula_sum   'Hf10 Zr6 C16'
_cell_volume   407.52032691
_cell_formula_units_Z   2
loop_
 _symmetry_equiv_pos_site_id
 _symmetry_equiv_pos_as_xyz
  1  'x, y, z'
loop_
 _atom_site_type_symbol
 _atom_site_label
 _atom_site_symmetry_multiplicity
 _atom_site_fract_x
 _atom_site_fract_y
 _atom_site_fract_z
 _atom_site_occupancy
  Hf  Hf0  1  0.00043047  0.00031416  0.00000000  1
  Hf  Hf1  1  0.00043047  0.24968584  0.50000000  1
  Hf  Hf2  1  0.24872947  0.00014005  0.50000000  1
  Hf  Hf3  1  0.24872947  0.24985995  0.00000000  1
  Hf  Hf4  1  0.00076007  0.49969026  0.00000000  1
  Hf  Hf5  1  0.00076007  0.75030974  0.50000000  1
  Hf  Hf6  1  0.24880722  0.49986081  0.50000000  1
  Hf  Hf7  1  0.24880722  0.75013919  0.00000000  1
  Hf  Hf8  1  0.75127070  0.00047346  0.50000000  1
  Hf  Hf9  1  0.75127070  0.24952654  0.00000000  1
  C  C10  1  0.24816817  0.24982317  0.50000000  1
  C  C11  1  0.24816817  0.00017683  0.00000000  1
  C  C12  1  0.00028772  0.24989091  0.00000000  1
  C  C13  1  0.00028772  0.00010909  0.50000000  1
  C  C14  1  0.24817366  0.75018044  0.50000000  1
  C  C15  1  0.24817366  0.49981956  0.00000000  1
  C  C16  1  0.00152630  0.75010698  0.00000000  1
  C  C17  1  0.00152630  0.49989302  0.50000000  1
  C  C18  1  0.75187697  0.24854423  0.50000000  1
  C  C19  1  0.75187697  0.00145577  0.00000000  1
  C  C20  1  0.49971111  0.24988742  0.00000000  1
  C  C21  1  0.49971111  0.00011258  0.50000000  1
  C  C22  1  0.75190591  0.75149889  0.50000000  1
  C  C23  1  0.75190591  0.49850111  0.00000000  1
  C  C24  1  0.49834930  0.75010954  0.00000000  1
  C  C25  1  0.49834930  0.49989046  0.50000000  1
  Zr  Zr26  1  0.49955801  0.00027815  0.00000000  1
  Zr  Zr27  1  0.49955801  0.24972185  0.50000000  1
  Zr  Zr28  1  0.49921207  0.49972642  0.00000000  1
  Zr  Zr29  1  0.49921207  0.75027358  0.50000000  1
  Zr  Zr30  1  0.75123282  0.49951080  0.50000000  1
  Zr  Zr31  1  0.75123282  0.75048920  0.00000000  1
