# generated using pymatgen
data_V4C3
_symmetry_space_group_name_H-M   'P 1'
_cell_length_a   9.63940465
_cell_length_b   2.95393387
_cell_length_c   5.08771690
_cell_angle_alpha   90.00000000
_cell_angle_beta   79.25704116
_cell_angle_gamma   90.00000000
_symmetry_Int_Tables_number   1
_chemical_formula_structural   V4C3
_chemical_formula_sum   'V8 C6'
_cell_volume   142.32942026
_cell_formula_units_Z   2
loop_
 _symmetry_equiv_pos_site_id
 _symmetry_equiv_pos_as_xyz
  1  'x, y, z'
loop_
 _atom_site_type_symbol
 _atom_site_label
 _atom_site_symmetry_multiplicity
 _atom_site_fract_x
 _atom_site_fract_y
 _atom_site_fract_z
 _atom_site_occupancy
  C  C0  1  0.75132528  0.00000000  0.24788890  1
  C  C1  1  0.24867472  0.00000000  0.75211110  1
  C  C2  1  0.25132528  0.50000000  0.24788890  1
  C  C3  1  0.74867472  0.50000000  0.75211110  1
  C  C4  1  0.00000000  0.00000000  0.50000000  1
  C  C5  1  0.50000000  0.50000000  0.50000000  1
  V  V6  1  0.86450831  0.00000000  0.86496046  1
  V  V7  1  0.13549169  0.00000000  0.13503954  1
  V  V8  1  0.36450831  0.50000000  0.86496046  1
  V  V9  1  0.63549169  0.50000000  0.13503954  1
  V  V10  1  0.37468025  0.00000000  0.38887398  1
  V  V11  1  0.62531975  0.00000000  0.61112602  1
  V  V12  1  0.87468025  0.50000000  0.38887398  1
  V  V13  1  0.12531975  0.50000000  0.61112602  1
