# generated using pymatgen
data_HfTaC2
_symmetry_space_group_name_H-M   'P 1'
_cell_length_a   9.10020824
_cell_length_b   9.10962405
_cell_length_c   4.55982001
_cell_angle_alpha   90.00000000
_cell_angle_beta   90.00000000
_cell_angle_gamma   90.03559284
_symmetry_Int_Tables_number   1
_chemical_formula_structural   HfTaC2
_chemical_formula_sum   'Hf8 Ta8 C16'
_cell_volume   378.00661574
_cell_formula_units_Z   8
loop_
 _symmetry_equiv_pos_site_id
 _symmetry_equiv_pos_as_xyz
  1  'x, y, z'
loop_
 _atom_site_type_symbol
 _atom_site_label
 _atom_site_symmetry_multiplicity
 _atom_site_fract_x
 _atom_site_fract_y
 _atom_site_fract_z
 _atom_site_occupancy
  Hf  Hf0  1  0.99913891  0.99971613  0.00000000  1
  Hf  Hf1  1  0.99950585  0.25067633  0.50000000  1
  Hf  Hf2  1  0.25057575  0.99931294  0.50000000  1
  Hf  Hf3  1  0.25002361  0.25086492  0.00000000  1
  Hf  Hf4  1  0.50047817  0.24945738  0.50000000  1
  Hf  Hf5  1  0.49950925  0.50024789  0.00000000  1
  Hf  Hf6  1  0.75075432  0.49952178  0.50000000  1
  Hf  Hf7  1  0.75005776  0.75039991  0.00000000  1
  C  C8  1  0.24995108  0.25373457  0.50000000  1
  C  C9  1  0.25329543  0.99545363  0.00000000  1
  C  C10  1  0.99664325  0.25327650  0.00000000  1
  C  C11  1  0.99675683  0.99654479  0.50000000  1
  C  C12  1  0.25000983  0.74746892  0.50000000  1
  C  C13  1  0.24734374  0.50388840  0.00000000  1
  C  C14  1  0.00265798  0.74724155  0.00000000  1
  C  C15  1  0.00253707  0.50262469  0.50000000  1
  C  C16  1  0.75001537  0.24706320  0.50000000  1
  C  C17  1  0.74743584  0.00147612  0.00000000  1
  C  C18  1  0.50340276  0.24658392  0.00000000  1
  C  C19  1  0.50269616  0.99736016  0.50000000  1
  C  C20  1  0.74990439  0.75308034  0.50000000  1
  C  C21  1  0.75321478  0.49789338  0.00000000  1
  C  C22  1  0.49736799  0.75277991  0.00000000  1
  C  C23  1  0.49673075  0.50361382  0.50000000  1
  Ta  Ta24  1  0.00045477  0.49952275  0.00000000  1
  Ta  Ta25  1  0.00086585  0.74953010  0.50000000  1
  Ta  Ta26  1  0.24962693  0.50048387  0.50000000  1
  Ta  Ta27  1  0.25004355  0.75002269  0.00000000  1
  Ta  Ta28  1  0.50054120  0.00047297  0.00000000  1
  Ta  Ta29  1  0.74935623  0.00020383  0.50000000  1
  Ta  Ta30  1  0.74998101  0.24916707  0.00000000  1
  Ta  Ta31  1  0.49912357  0.75031553  0.50000000  1
