# generated using pymatgen
data_Hf13Ta3C16
_symmetry_space_group_name_H-M   'P 1'
_cell_length_a   9.23779529
_cell_length_b   9.21841405
_cell_length_c   4.60555197
_cell_angle_alpha   90.00000000
_cell_angle_beta   90.00000000
_cell_angle_gamma   89.96998658
_symmetry_Int_Tables_number   1
_chemical_formula_structural   Hf13Ta3C16
_chemical_formula_sum   'Hf13 Ta3 C16'
_cell_volume   392.19872077
_cell_formula_units_Z   1
loop_
 _symmetry_equiv_pos_site_id
 _symmetry_equiv_pos_as_xyz
  1  'x, y, z'
loop_
 _atom_site_type_symbol
 _atom_site_label
 _atom_site_symmetry_multiplicity
 _atom_site_fract_x
 _atom_site_fract_y
 _atom_site_fract_z
 _atom_site_occupancy
  Hf  Hf0  1  0.00037687  0.99983166  0.00000000  1
  Hf  Hf1  1  0.00011150  0.24953004  0.50000000  1
  Hf  Hf2  1  0.25024146  0.24869910  0.00000000  1
  Hf  Hf3  1  0.99980721  0.50030269  0.00000000  1
  Hf  Hf4  1  0.99959143  0.75051509  0.50000000  1
  Hf  Hf5  1  0.25022745  0.50001740  0.50000000  1
  Hf  Hf6  1  0.25029904  0.75132515  0.00000000  1
  Hf  Hf7  1  0.49992830  0.24860472  0.50000000  1
  Hf  Hf8  1  0.74949835  0.99944349  0.50000000  1
  Hf  Hf9  1  0.74983243  0.24942159  0.00000000  1
  Hf  Hf10  1  0.50006732  0.50035344  0.00000000  1
  Hf  Hf11  1  0.50024134  0.75107413  0.50000000  1
  Hf  Hf12  1  0.74978614  0.50059763  0.50000000  1
  Ta  Ta13  1  0.24998162  0.99977696  0.50000000  1
  Ta  Ta14  1  0.50028255  0.99990038  0.00000000  1
  Ta  Ta15  1  0.74991072  0.75060619  0.00000000  1
  C  C16  1  0.25059085  0.24471304  0.50000000  1
  C  C17  1  0.25357922  0.99963356  0.00000000  1
  C  C18  1  0.00024600  0.24923363  0.00000000  1
  C  C19  1  0.00380447  0.99923683  0.50000000  1
  C  C20  1  0.25069670  0.75556984  0.50000000  1
  C  C21  1  0.25031959  0.50016305  0.00000000  1
  C  C22  1  0.99599646  0.75099858  0.00000000  1
  C  C23  1  0.99986645  0.50047516  0.50000000  1
  C  C24  1  0.74946555  0.24918909  0.50000000  1
  C  C25  1  0.74580065  0.99565836  0.00000000  1
  C  C26  1  0.49968876  0.24451533  0.00000000  1
  C  C27  1  0.49726421  0.99933009  0.50000000  1
  C  C28  1  0.74933974  0.75104725  0.50000000  1
  C  C29  1  0.74968550  0.50465536  0.00000000  1
  C  C30  1  0.50332857  0.75503068  0.00000000  1
  C  C31  1  0.50014352  0.50055052  0.50000000  1
