# generated using pymatgen
data_Hf15ZrC16
_symmetry_space_group_name_H-M   'P 1'
_cell_length_a   9.30114714
_cell_length_b   9.30114714
_cell_length_c   4.65027684
_cell_angle_alpha   90.00000000
_cell_angle_beta   90.00000000
_cell_angle_gamma   90.00000000
_symmetry_Int_Tables_number   1
_chemical_formula_structural   Hf15ZrC16
_chemical_formula_sum   'Hf15 Zr1 C16'
_cell_volume   402.30167206
_cell_formula_units_Z   1
loop_
 _symmetry_equiv_pos_site_id
 _symmetry_equiv_pos_as_xyz
  1  'x, y, z'
loop_
 _atom_site_type_symbol
 _atom_site_label
 _atom_site_symmetry_multiplicity
 _atom_site_fract_x
 _atom_site_fract_y
 _atom_site_fract_z
 _atom_site_occupancy
  Hf  Hf0  1  0.00019488  0.99980512  0.00000000  1
  Hf  Hf1  1  0.00038074  0.25000000  0.50000000  1
  Hf  Hf2  1  0.25000000  0.99997837  0.50000000  1
  Hf  Hf3  1  0.25000000  0.25000000  0.00000000  1
  Hf  Hf4  1  0.00019488  0.50019488  0.00000000  1
  Hf  Hf5  1  0.00002163  0.75000000  0.50000000  1
  Hf  Hf6  1  0.25000000  0.50002163  0.50000000  1
  Hf  Hf7  1  0.25000000  0.75000000  0.00000000  1
  Hf  Hf8  1  0.49980512  0.99980512  0.00000000  1
  Hf  Hf9  1  0.49961926  0.25000000  0.50000000  1
  Hf  Hf10  1  0.75000000  0.99961926  0.50000000  1
  Hf  Hf11  1  0.49980512  0.50019488  0.00000000  1
  Hf  Hf12  1  0.49997837  0.75000000  0.50000000  1
  Hf  Hf13  1  0.75000000  0.50038074  0.50000000  1
  Hf  Hf14  1  0.75000000  0.75000000  0.00000000  1
  C  C15  1  0.25000000  0.25000000  0.50000000  1
  C  C16  1  0.25000000  0.00000079  0.00000000  1
  C  C17  1  0.00144639  0.25000000  0.00000000  1
  C  C18  1  0.00000106  0.99999894  0.50000000  1
  C  C19  1  0.25000000  0.75000000  0.50000000  1
  C  C20  1  0.25000000  0.49999921  0.00000000  1
  C  C21  1  0.99999921  0.75000000  0.00000000  1
  C  C22  1  0.00000106  0.50000106  0.50000000  1
  C  C23  1  0.75000000  0.25000000  0.50000000  1
  C  C24  1  0.75000000  0.99855361  0.00000000  1
  C  C25  1  0.49855361  0.25000000  0.00000000  1
  C  C26  1  0.49999894  0.99999894  0.50000000  1
  C  C27  1  0.75000000  0.75000000  0.50000000  1
  C  C28  1  0.75000000  0.50144639  0.00000000  1
  C  C29  1  0.50000079  0.75000000  0.00000000  1
  C  C30  1  0.49999894  0.50000106  0.50000000  1
  Zr  Zr31  1  0.75000000  0.25000000  0.00000000  1
