# generated using pymatgen
data_Hf11Ta5C16
_symmetry_space_group_name_H-M   'P 1'
_cell_length_a   9.17952465
_cell_length_b   9.17988246
_cell_length_c   4.58689803
_cell_angle_alpha   90.00000000
_cell_angle_beta   90.00000000
_cell_angle_gamma   89.94953581
_symmetry_Int_Tables_number   1
_chemical_formula_structural   Hf11Ta5C16
_chemical_formula_sum   'Hf11 Ta5 C16'
_cell_volume   386.52379066
_cell_formula_units_Z   1
loop_
 _symmetry_equiv_pos_site_id
 _symmetry_equiv_pos_as_xyz
  1  'x, y, z'
loop_
 _atom_site_type_symbol
 _atom_site_label
 _atom_site_symmetry_multiplicity
 _atom_site_fract_x
 _atom_site_fract_y
 _atom_site_fract_z
 _atom_site_occupancy
  Hf  Hf0  1  0.00010596  0.99951818  0.00000000  1
  Hf  Hf1  1  -0.00004507  0.25068395  0.50000000  1
  Hf  Hf2  1  0.25000000  0.00000000  0.50000000  1
  Hf  Hf3  1  0.25051680  0.25088824  0.00000000  1
  Hf  Hf4  1  0.24948320  0.74911176  0.00000000  1
  Hf  Hf5  1  0.49989404  0.00048182  0.00000000  1
  Hf  Hf6  1  0.75000000  0.00000000  0.50000000  1
  Hf  Hf7  1  0.74914298  0.25016243  0.00000000  1
  Hf  Hf8  1  0.50004507  0.74931605  0.50000000  1
  Hf  Hf9  1  0.75000000  0.50000000  0.50000000  1
  Hf  Hf10  1  0.75085702  0.74983757  0.00000000  1
  C  C11  1  0.25369040  0.25563959  0.50000000  1
  C  C12  1  0.25000000  0.00000000  0.00000000  1
  C  C13  1  0.00081337  0.25572685  0.00000000  1
  C  C14  1  0.00034286  0.99579778  0.50000000  1
  C  C15  1  0.24630960  0.74436041  0.50000000  1
  C  C16  1  0.25000000  0.50000000  0.00000000  1
  C  C17  1  0.00068753  0.74540959  0.00000000  1
  C  C18  1  0.00329065  0.50260755  0.50000000  1
  C  C19  1  0.74564413  0.25152976  0.50000000  1
  C  C20  1  0.75000000  0.00000000  0.00000000  1
  C  C21  1  0.49931247  0.25459041  0.00000000  1
  C  C22  1  0.49965714  0.00420222  0.50000000  1
  C  C23  1  0.75435587  0.74847024  0.50000000  1
  C  C24  1  0.75000000  0.50000000  0.00000000  1
  C  C25  1  0.49918663  0.74427315  0.00000000  1
  C  C26  1  0.49670935  0.49739245  0.50000000  1
  Ta  Ta27  1  -0.00039749  0.49920115  0.00000000  1
  Ta  Ta28  1  -0.00017859  0.75032709  0.50000000  1
  Ta  Ta29  1  0.25000000  0.50000000  0.50000000  1
  Ta  Ta30  1  0.50017859  0.24967291  0.50000000  1
  Ta  Ta31  1  0.50039749  0.50079885  0.00000000  1
