# generated using pymatgen
data_HfZrC2
_symmetry_space_group_name_H-M   'P 1'
_cell_length_a   9.35790606
_cell_length_b   9.35832189
_cell_length_c   4.67844881
_cell_angle_alpha   90.00000000
_cell_angle_beta   90.00000000
_cell_angle_gamma   90.00299014
_symmetry_Int_Tables_number   1
_chemical_formula_structural   HfZrC2
_chemical_formula_sum   'Hf8 Zr8 C16'
_cell_volume   409.71186574
_cell_formula_units_Z   8
loop_
 _symmetry_equiv_pos_site_id
 _symmetry_equiv_pos_as_xyz
  1  'x, y, z'
loop_
 _atom_site_type_symbol
 _atom_site_label
 _atom_site_symmetry_multiplicity
 _atom_site_fract_x
 _atom_site_fract_y
 _atom_site_fract_z
 _atom_site_occupancy
  Hf  Hf0  1  0.00035411  0.00049714  0.00000000  1
  Hf  Hf1  1  0.00036815  0.24964538  0.50000000  1
  Hf  Hf2  1  0.24964903  0.00083342  0.50000000  1
  Hf  Hf3  1  0.24999512  0.24964604  0.00000000  1
  Hf  Hf4  1  0.49964129  0.25034478  0.50000000  1
  Hf  Hf5  1  0.50034763  0.49951270  0.00000000  1
  Hf  Hf6  1  0.74964938  0.49986764  0.50000000  1
  Hf  Hf7  1  0.74999505  0.74965174  0.00000000  1
  C  C8  1  0.24999951  0.24864529  0.50000000  1
  C  C9  1  0.24863198  0.00146209  0.00000000  1
  C  C10  1  0.00136260  0.24863566  0.00000000  1
  C  C11  1  0.00137113  0.00153144  0.50000000  1
  C  C12  1  0.24999896  0.75137690  0.50000000  1
  C  C13  1  0.25136360  0.49854217  0.00000000  1
  C  C14  1  0.99862849  0.75136844  0.00000000  1
  C  C15  1  0.99863870  0.49846994  0.50000000  1
  C  C16  1  0.74999980  0.25135064  0.50000000  1
  C  C17  1  0.75136423  0.99872972  0.00000000  1
  C  C18  1  0.49863908  0.25136247  0.00000000  1
  C  C19  1  0.49863334  0.00153125  0.50000000  1
  C  C20  1  0.74999870  0.74861844  0.50000000  1
  C  C21  1  0.74863152  0.50127456  0.00000000  1
  C  C22  1  0.50137281  0.74863025  0.00000000  1
  C  C23  1  0.50136554  0.49847027  0.50000000  1
  Zr  Zr24  1  0.99965049  0.49950566  0.00000000  1
  Zr  Zr25  1  0.99966384  0.75034923  0.50000000  1
  Zr  Zr26  1  0.25035204  0.49915316  0.50000000  1
  Zr  Zr27  1  0.24999551  0.75034998  0.00000000  1
  Zr  Zr28  1  0.49964554  0.00050270  0.00000000  1
  Zr  Zr29  1  0.75035220  0.00014376  0.50000000  1
  Zr  Zr30  1  0.74999556  0.25035528  0.00000000  1
  Zr  Zr31  1  0.50034506  0.74964188  0.50000000  1
