# generated using pymatgen
data_Hf9Ta7C16
_symmetry_space_group_name_H-M   'P 1'
_cell_length_a   9.12356484
_cell_length_b   9.13951222
_cell_length_c   4.56776802
_cell_angle_alpha   90.00000000
_cell_angle_beta   90.00000000
_cell_angle_gamma   90.01333057
_symmetry_Int_Tables_number   1
_chemical_formula_structural   Hf9Ta7C16
_chemical_formula_sum   'Hf9 Ta7 C16'
_cell_volume   380.88301690
_cell_formula_units_Z   1
loop_
 _symmetry_equiv_pos_site_id
 _symmetry_equiv_pos_as_xyz
  1  'x, y, z'
loop_
 _atom_site_type_symbol
 _atom_site_label
 _atom_site_symmetry_multiplicity
 _atom_site_fract_x
 _atom_site_fract_y
 _atom_site_fract_z
 _atom_site_occupancy
  Hf  Hf0  1  0.00022795  0.00035462  0.00000000  1
  Hf  Hf1  1  0.25007278  0.99955355  0.50000000  1
  Hf  Hf2  1  0.24966648  0.25000078  0.00000000  1
  Hf  Hf3  1  0.00018211  0.74951215  0.50000000  1
  Hf  Hf4  1  0.50005465  0.99957060  0.00000000  1
  Hf  Hf5  1  0.50070843  0.24990467  0.50000000  1
  Hf  Hf6  1  0.74991305  0.00046322  0.50000000  1
  Hf  Hf7  1  0.50031713  0.50000762  0.00000000  1
  Hf  Hf8  1  0.49978213  0.75013798  0.50000000  1
  Ta  Ta9  1  0.00025920  0.25036957  0.50000000  1
  Ta  Ta10  1  0.00005058  0.50040841  0.00000000  1
  Ta  Ta11  1  0.24985534  0.49996394  0.50000000  1
  Ta  Ta12  1  0.25104116  0.75049244  0.00000000  1
  Ta  Ta13  1  0.74956492  0.24851300  0.00000000  1
  Ta  Ta14  1  0.74942184  0.49997810  0.50000000  1
  Ta  Ta15  1  0.74887655  0.75075348  0.00000000  1
  C  C16  1  0.24568845  0.25458342  0.50000000  1
  C  C17  1  0.24937747  0.99661964  0.00000000  1
  C  C18  1  0.99712331  0.25422024  0.00000000  1
  C  C19  1  0.99961880  0.00343382  0.50000000  1
  C  C20  1  0.24937829  0.74607943  0.50000000  1
  C  C21  1  0.24639406  0.50247720  0.00000000  1
  C  C22  1  0.99977898  0.74515704  0.00000000  1
  C  C23  1  0.99930342  0.49782214  0.50000000  1
  C  C24  1  0.75338300  0.25359720  0.50000000  1
  C  C25  1  0.75061760  0.00064649  0.00000000  1
  C  C26  1  0.50397086  0.25126863  0.00000000  1
  C  C27  1  0.50050959  0.99942964  0.50000000  1
  C  C28  1  0.75061822  0.74595035  0.50000000  1
  C  C29  1  0.75329300  0.49960934  0.00000000  1
  C  C30  1  0.50009847  0.74884870  0.00000000  1
  C  C31  1  0.50085219  0.50027261  0.50000000  1
