# generated using pymatgen
data_Hf5Ta3C8
_symmetry_space_group_name_H-M   'P 1'
_cell_length_a   9.15979532
_cell_length_b   9.15797065
_cell_length_c   4.57613424
_cell_angle_alpha   90.00000000
_cell_angle_beta   90.00000000
_cell_angle_gamma   90.00000000
_symmetry_Int_Tables_number   1
_chemical_formula_structural   Hf5Ta3C8
_chemical_formula_sum   'Hf10 Ta6 C16'
_cell_volume   383.86964628
_cell_formula_units_Z   2
loop_
 _symmetry_equiv_pos_site_id
 _symmetry_equiv_pos_as_xyz
  1  'x, y, z'
loop_
 _atom_site_type_symbol
 _atom_site_label
 _atom_site_symmetry_multiplicity
 _atom_site_fract_x
 _atom_site_fract_y
 _atom_site_fract_z
 _atom_site_occupancy
  Hf  Hf0  1  -0.00024159  0.00012878  0.00000000  1
  Hf  Hf1  1  -0.00024159  0.24987122  0.50000000  1
  Hf  Hf2  1  0.25111145  0.00000654  0.50000000  1
  Hf  Hf3  1  0.25111145  0.24999346  0.00000000  1
  Hf  Hf4  1  0.99904986  0.49971406  0.00000000  1
  Hf  Hf5  1  0.99904986  0.75028594  0.50000000  1
  Hf  Hf6  1  0.25070725  0.50001488  0.50000000  1
  Hf  Hf7  1  0.25070725  0.74998512  0.00000000  1
  Hf  Hf8  1  0.74928914  0.99896543  0.50000000  1
  Hf  Hf9  1  0.74928914  0.25103457  0.00000000  1
  C  C10  1  0.25611640  0.25049866  0.50000000  1
  C  C11  1  0.25611640  0.99950134  0.00000000  1
  C  C12  1  0.99904164  0.25062883  0.00000000  1
  C  C13  1  0.99904164  0.99937117  0.50000000  1
  C  C14  1  0.25605409  0.74977711  0.50000000  1
  C  C15  1  0.25605409  0.50022289  0.00000000  1
  C  C16  1  0.99460810  0.74953912  0.00000000  1
  C  C17  1  0.99460810  0.50046088  0.50000000  1
  C  C18  1  0.74439063  0.25387750  0.50000000  1
  C  C19  1  0.74439063  0.99612250  0.00000000  1
  C  C20  1  0.50054039  0.25099417  0.00000000  1
  C  C21  1  0.50054039  0.99900583  0.50000000  1
  C  C22  1  0.74573103  0.74724407  0.50000000  1
  C  C23  1  0.74573103  0.50275593  0.00000000  1
  C  C24  1  0.50337149  0.74926130  0.00000000  1
  C  C25  1  0.50337149  0.50073870  0.50000000  1
  Ta  Ta26  1  0.49988855  0.99944550  0.00000000  1
  Ta  Ta27  1  0.49988855  0.25055450  0.50000000  1
  Ta  Ta28  1  0.49917133  0.50019943  0.00000000  1
  Ta  Ta29  1  0.49917133  0.74980057  0.50000000  1
  Ta  Ta30  1  0.75117025  0.50072657  0.50000000  1
  Ta  Ta31  1  0.75117025  0.74927343  0.00000000  1
