# generated using pymatgen
data_Hf3TaC4
_symmetry_space_group_name_H-M   'P 1'
_cell_length_a   9.20367887
_cell_length_b   9.20367887
_cell_length_c   4.59623737
_cell_angle_alpha   90.00000000
_cell_angle_beta   90.00000000
_cell_angle_gamma   89.99206217
_symmetry_Int_Tables_number   1
_chemical_formula_structural   Hf3TaC4
_chemical_formula_sum   'Hf12 Ta4 C16'
_cell_volume   389.33671426
_cell_formula_units_Z   4
loop_
 _symmetry_equiv_pos_site_id
 _symmetry_equiv_pos_as_xyz
  1  'x, y, z'
loop_
 _atom_site_type_symbol
 _atom_site_label
 _atom_site_symmetry_multiplicity
 _atom_site_fract_x
 _atom_site_fract_y
 _atom_site_fract_z
 _atom_site_occupancy
  Ta  Ta0  1  0.00018200  0.99981800  0.00000000  1
  Ta  Ta1  1  0.24981805  0.50050365  0.50000000  1
  Ta  Ta2  1  0.24951847  0.75048153  0.00000000  1
  Ta  Ta3  1  0.49949635  0.75018195  0.50000000  1
  Hf  Hf4  1  0.00049896  0.24969697  0.50000000  1
  Hf  Hf5  1  0.24968178  0.99909720  0.50000000  1
  Hf  Hf6  1  0.25019047  0.25033830  0.00000000  1
  Hf  Hf7  1  0.00107433  0.50039707  0.00000000  1
  Hf  Hf8  1  0.00090280  0.75031822  0.50000000  1
  Hf  Hf9  1  0.49960293  0.99892567  0.00000000  1
  Hf  Hf10  1  0.49953811  0.25019673  0.50000000  1
  Hf  Hf11  1  0.75030303  0.99950104  0.50000000  1
  Hf  Hf12  1  0.75026937  0.24973063  0.00000000  1
  Hf  Hf13  1  0.49919224  0.50080776  0.00000000  1
  Hf  Hf14  1  0.74980327  0.50046189  0.50000000  1
  Hf  Hf15  1  0.74966170  0.74980953  0.00000000  1
  C  C16  1  0.24974544  0.25387164  0.50000000  1
  C  C17  1  0.24671861  0.99505274  0.00000000  1
  C  C18  1  0.00093929  0.24595450  0.00000000  1
  C  C19  1  0.00102705  0.99897295  0.50000000  1
  C  C20  1  0.25233949  0.74766051  0.50000000  1
  C  C21  1  0.25027904  0.50441940  0.00000000  1
  C  C22  1  0.00494726  0.75328139  0.00000000  1
  C  C23  1  0.00565676  0.50102113  0.50000000  1
  C  C24  1  0.75027652  0.24972348  0.50000000  1
  C  C25  1  0.75404550  0.99906071  0.00000000  1
  C  C26  1  0.49895312  0.25039883  0.00000000  1
  C  C27  1  0.49897887  0.99434324  0.50000000  1
  C  C28  1  0.74612836  0.75025456  0.50000000  1
  C  C29  1  0.74960117  0.50104688  0.00000000  1
  C  C30  1  0.49558060  0.74972096  0.00000000  1
  C  C31  1  0.49504905  0.50495095  0.50000000  1
