# generated using pymatgen
data_Hf7TaC8
_symmetry_space_group_name_H-M   'P 1'
_cell_length_a   9.25082145
_cell_length_b   9.24010032
_cell_length_c   4.62179133
_cell_angle_alpha   90.00000000
_cell_angle_beta   90.00000000
_cell_angle_gamma   90.00000000
_symmetry_Int_Tables_number   1
_chemical_formula_structural   Hf7TaC8
_chemical_formula_sum   'Hf14 Ta2 C16'
_cell_volume   395.06387450
_cell_formula_units_Z   2
loop_
 _symmetry_equiv_pos_site_id
 _symmetry_equiv_pos_as_xyz
  1  'x, y, z'
loop_
 _atom_site_type_symbol
 _atom_site_label
 _atom_site_symmetry_multiplicity
 _atom_site_fract_x
 _atom_site_fract_y
 _atom_site_fract_z
 _atom_site_occupancy
  Hf  Hf0  1  0.00009981  0.00000000  -0.00000000  1
  Hf  Hf1  1  0.00019620  0.25160309  0.50000000  1
  Hf  Hf2  1  0.24990019  0.00000000  0.50000000  1
  Hf  Hf3  1  0.24980380  0.25160309  -0.00000000  1
  Hf  Hf4  1  0.00019620  0.74839691  0.50000000  1
  Hf  Hf5  1  0.24980380  0.74839691  -0.00000000  1
  Hf  Hf6  1  0.49996220  0.00000000  -0.00000000  1
  Hf  Hf7  1  0.49992153  0.25063590  0.50000000  1
  Hf  Hf8  1  0.75003780  0.00000000  0.50000000  1
  Hf  Hf9  1  0.75007847  0.25063590  -0.00000000  1
  Hf  Hf10  1  0.49941622  0.50000000  -0.00000000  1
  Hf  Hf11  1  0.49992153  0.74936410  0.50000000  1
  Hf  Hf12  1  0.75058378  0.50000000  0.50000000  1
  Hf  Hf13  1  0.75007847  0.74936410  0.00000000  1
  C  C14  1  0.24936529  0.25538963  0.50000000  1
  C  C15  1  0.24955026  0.00000000  -0.00000000  1
  C  C16  1  0.00063471  0.25538963  -0.00000000  1
  C  C17  1  0.00044974  0.00000000  0.50000000  1
  C  C18  1  0.24936529  0.74461037  0.50000000  1
  C  C19  1  0.24639625  0.50000000  -0.00000000  1
  C  C20  1  0.00063471  0.74461037  0.00000000  1
  C  C21  1  0.00360375  0.50000000  0.50000000  1
  C  C22  1  0.75036476  0.25082724  0.50000000  1
  C  C23  1  0.75037336  0.00000000  -0.00000000  1
  C  C24  1  0.49963524  0.25082724  0.00000000  1
  C  C25  1  0.49962664  0.00000000  0.50000000  1
  C  C26  1  0.75036476  0.74917276  0.50000000  1
  C  C27  1  0.75464316  0.50000000  -0.00000000  1
  C  C28  1  0.49963524  0.74917276  -0.00000000  1
  C  C29  1  0.49535684  0.50000000  0.50000000  1
  Ta  Ta30  1  0.99958162  0.50000000  -0.00000000  1
  Ta  Ta31  1  0.25041838  0.50000000  0.50000000  1
