# generated using pymatgen
data_V4C3
_symmetry_space_group_name_H-M   'P 1'
_cell_length_a   9.61146255
_cell_length_b   2.94584482
_cell_length_c   5.06880885
_cell_angle_alpha   90.00000000
_cell_angle_beta   79.37575351
_cell_angle_gamma   90.00000000
_symmetry_Int_Tables_number   1
_chemical_formula_structural   V4C3
_chemical_formula_sum   'V8 C6'
_cell_volume   141.05736815
_cell_formula_units_Z   2
loop_
 _symmetry_equiv_pos_site_id
 _symmetry_equiv_pos_as_xyz
  1  'x, y, z'
loop_
 _atom_site_type_symbol
 _atom_site_label
 _atom_site_symmetry_multiplicity
 _atom_site_fract_x
 _atom_site_fract_y
 _atom_site_fract_z
 _atom_site_occupancy
  C  C0  1  0.75078759  0.00000000  0.24780593  1
  C  C1  1  0.24921241  0.00000000  0.75219407  1
  C  C2  1  0.25078759  0.50000000  0.24780593  1
  C  C3  1  0.74921241  0.50000000  0.75219407  1
  C  C4  1  0.00000000  0.00000000  0.50000000  1
  C  C5  1  0.50000000  0.50000000  0.50000000  1
  V  V6  1  0.86525519  0.00000000  0.86597839  1
  V  V7  1  0.13474481  0.00000000  0.13402161  1
  V  V8  1  0.36525519  0.50000000  0.86597839  1
  V  V9  1  0.63474481  0.50000000  0.13402161  1
  V  V10  1  0.37460887  0.00000000  0.38817246  1
  V  V11  1  0.62539113  0.00000000  0.61182754  1
  V  V12  1  0.87460887  0.50000000  0.38817246  1
  V  V13  1  0.12539113  0.50000000  0.61182754  1
