# generated using pymatgen
data_Hf15TaC16
_symmetry_space_group_name_H-M   'P 1'
_cell_length_a   9.26593512
_cell_length_b   9.26593512
_cell_length_c   4.63189158
_cell_angle_alpha   90.00000000
_cell_angle_beta   90.00000000
_cell_angle_gamma   90.00000000
_symmetry_Int_Tables_number   1
_chemical_formula_structural   Hf15TaC16
_chemical_formula_sum   'Hf15 Ta1 C16'
_cell_volume   397.68287982
_cell_formula_units_Z   1
loop_
 _symmetry_equiv_pos_site_id
 _symmetry_equiv_pos_as_xyz
  1  'x, y, z'
loop_
 _atom_site_type_symbol
 _atom_site_label
 _atom_site_symmetry_multiplicity
 _atom_site_fract_x
 _atom_site_fract_y
 _atom_site_fract_z
 _atom_site_occupancy
  Hf  Hf0  1  0.99977924  0.00022076  -0.00000000  1
  Hf  Hf1  1  0.99936920  0.25000000  0.50000000  1
  Hf  Hf2  1  0.25000000  0.99993398  0.50000000  1
  Hf  Hf3  1  0.25000000  0.25000000  -0.00000000  1
  Hf  Hf4  1  0.99977924  0.49977924  -0.00000000  1
  Hf  Hf5  1  0.00006602  0.75000000  0.50000000  1
  Hf  Hf6  1  0.25000000  0.50006602  0.50000000  1
  Hf  Hf7  1  0.25000000  0.75000000  -0.00000000  1
  Hf  Hf8  1  0.50022076  0.00022076  -0.00000000  1
  Hf  Hf9  1  0.50063080  0.25000000  0.50000000  1
  Hf  Hf10  1  0.75000000  0.00063080  0.50000000  1
  Hf  Hf11  1  0.50022076  0.49977924  -0.00000000  1
  Hf  Hf12  1  0.49993398  0.75000000  0.50000000  1
  Hf  Hf13  1  0.75000000  0.49936920  0.50000000  1
  Hf  Hf14  1  0.75000000  0.75000000  -0.00000000  1
  C  C15  1  0.25000000  0.25000000  0.50000000  1
  C  C16  1  0.25000000  0.00035922  -0.00000000  1
  C  C17  1  0.99532854  0.25000000  -0.00000000  1
  C  C18  1  0.99944003  0.00055997  0.50000000  1
  C  C19  1  0.25000000  0.75000000  0.50000000  1
  C  C20  1  0.25000000  0.49964078  -0.00000000  1
  C  C21  1  0.99964078  0.75000000  -0.00000000  1
  C  C22  1  0.99944003  0.49944003  0.50000000  1
  C  C23  1  0.75000000  0.25000000  0.50000000  1
  C  C24  1  0.75000000  0.00467146  0.00000000  1
  C  C25  1  0.50467146  0.25000000  -0.00000000  1
  C  C26  1  0.50055997  0.00055997  0.50000000  1
  C  C27  1  0.75000000  0.75000000  0.50000000  1
  C  C28  1  0.75000000  0.49532854  -0.00000000  1
  C  C29  1  0.50035922  0.75000000  -0.00000000  1
  C  C30  1  0.50055997  0.49944003  0.50000000  1
  Ta  Ta31  1  0.75000000  0.25000000  -0.00000000  1
