# generated using pymatgen
data_Hf3AlB8
_symmetry_space_group_name_H-M   'P 1'
_cell_length_a   6.18267317
_cell_length_b   6.20737620
_cell_length_c   6.97645053
_cell_angle_alpha   90.00000000
_cell_angle_beta   90.00000000
_cell_angle_gamma   120.13225913
_symmetry_Int_Tables_number   1
_chemical_formula_structural   Hf3AlB8
_chemical_formula_sum   'Hf6 Al2 B16'
_cell_volume   231.56299860
_cell_formula_units_Z   2
loop_
 _symmetry_equiv_pos_site_id
 _symmetry_equiv_pos_as_xyz
  1  'x, y, z'
loop_
 _atom_site_type_symbol
 _atom_site_label
 _atom_site_symmetry_multiplicity
 _atom_site_fract_x
 _atom_site_fract_y
 _atom_site_fract_z
 _atom_site_occupancy
  Hf  Hf0  1  0.00000000  0.00000000  0.00000000  1
  Hf  Hf1  1  0.00000000  0.00000000  0.50000000  1
  Hf  Hf2  1  0.00000000  0.50000000  0.00000000  1
  Hf  Hf3  1  0.00000000  0.50000000  0.50000000  1
  Hf  Hf4  1  0.50000000  0.00000000  0.00000000  1
  Hf  Hf5  1  0.50000000  0.50000000  0.00000000  1
  B  B6  1  0.16930716  0.33465357  0.25457127  1
  B  B7  1  0.33576655  0.16788328  0.25511767  1
  B  B8  1  0.16930716  0.33465357  0.74542873  1
  B  B9  1  0.33576655  0.16788328  0.74488233  1
  B  B10  1  0.16930716  0.83465357  0.25457127  1
  B  B11  1  0.33576655  0.66788328  0.25511767  1
  B  B12  1  0.16930716  0.83465357  0.74542873  1
  B  B13  1  0.33576655  0.66788328  0.74488233  1
  B  B14  1  0.66423345  0.33211672  0.25511767  1
  B  B15  1  0.83069284  0.16534643  0.25457127  1
  B  B16  1  0.66423345  0.33211672  0.74488233  1
  B  B17  1  0.83069284  0.16534643  0.74542873  1
  B  B18  1  0.66423345  0.83211672  0.25511767  1
  B  B19  1  0.83069284  0.66534643  0.25457127  1
  B  B20  1  0.66423345  0.83211672  0.74488233  1
  B  B21  1  0.83069284  0.66534643  0.74542873  1
  Al  Al22  1  0.50000000  0.00000000  0.50000000  1
  Al  Al23  1  0.50000000  0.50000000  0.50000000  1
