# generated using pymatgen
data_Hf3B8W
_symmetry_space_group_name_H-M   'P 1'
_cell_length_a   6.24189974
_cell_length_b   6.24189974
_cell_length_c   6.83132891
_cell_angle_alpha   90.00000000
_cell_angle_beta   90.00000000
_cell_angle_gamma   119.85767817
_symmetry_Int_Tables_number   1
_chemical_formula_structural   Hf3B8W
_chemical_formula_sum   'Hf6 B16 W2'
_cell_volume   230.82904483
_cell_formula_units_Z   2
loop_
 _symmetry_equiv_pos_site_id
 _symmetry_equiv_pos_as_xyz
  1  'x, y, z'
loop_
 _atom_site_type_symbol
 _atom_site_label
 _atom_site_symmetry_multiplicity
 _atom_site_fract_x
 _atom_site_fract_y
 _atom_site_fract_z
 _atom_site_occupancy
  Hf  Hf0  1  0.00000000  0.00000000  0.00000000  1
  Hf  Hf1  1  0.00000000  0.00000000  0.50000000  1
  Hf  Hf2  1  0.00000000  0.50000000  0.50000000  1
  Hf  Hf3  1  0.50000000  0.00000000  0.50000000  1
  Hf  Hf4  1  0.50000000  0.50000000  0.00000000  1
  Hf  Hf5  1  0.50000000  0.50000000  0.50000000  1
  B  B6  1  0.16580548  0.33419452  0.24559486  1
  B  B7  1  0.33419452  0.16580548  0.24559486  1
  B  B8  1  0.16580548  0.33419452  0.75440514  1
  B  B9  1  0.33419452  0.16580548  0.75440514  1
  B  B10  1  0.16733528  0.83266472  0.24628702  1
  B  B11  1  0.33266472  0.66733528  0.24628702  1
  B  B12  1  0.16733528  0.83266472  0.75371298  1
  B  B13  1  0.33266472  0.66733528  0.75371298  1
  B  B14  1  0.66733528  0.33266472  0.24628702  1
  B  B15  1  0.83266472  0.16733528  0.24628702  1
  B  B16  1  0.66733528  0.33266472  0.75371298  1
  B  B17  1  0.83266472  0.16733528  0.75371298  1
  B  B18  1  0.66580548  0.83419452  0.24559486  1
  B  B19  1  0.83419452  0.66580548  0.24559486  1
  B  B20  1  0.66580548  0.83419452  0.75440514  1
  B  B21  1  0.83419452  0.66580548  0.75440514  1
  W  W22  1  0.00000000  0.50000000  0.00000000  1
  W  W23  1  0.50000000  0.00000000  0.00000000  1
