# generated using pymatgen
data_Hf3TaB8
_symmetry_space_group_name_H-M   'P 1'
_cell_length_a   6.26294390
_cell_length_b   6.26361407
_cell_length_c   6.88307769
_cell_angle_alpha   90.00000000
_cell_angle_beta   90.00000000
_cell_angle_gamma   120.00353980
_symmetry_Int_Tables_number   1
_chemical_formula_structural   Hf3TaB8
_chemical_formula_sum   'Hf6 Ta2 B16'
_cell_volume   233.83058914
_cell_formula_units_Z   2
loop_
 _symmetry_equiv_pos_site_id
 _symmetry_equiv_pos_as_xyz
  1  'x, y, z'
loop_
 _atom_site_type_symbol
 _atom_site_label
 _atom_site_symmetry_multiplicity
 _atom_site_fract_x
 _atom_site_fract_y
 _atom_site_fract_z
 _atom_site_occupancy
  Hf  Hf0  1  0.00000000  0.00000000  0.00000000  1
  Hf  Hf1  1  0.00000000  0.00000000  0.50000000  1
  Hf  Hf2  1  0.00000000  0.50000000  0.00000000  1
  Hf  Hf3  1  0.00000000  0.50000000  0.50000000  1
  Hf  Hf4  1  0.50000000  0.00000000  0.00000000  1
  Hf  Hf5  1  0.50000000  0.50000000  0.00000000  1
  B  B6  1  0.16765755  0.33382877  0.25289845  1
  B  B7  1  0.33447948  0.16723974  0.25250141  1
  B  B8  1  0.16765755  0.33382877  0.74710155  1
  B  B9  1  0.33447948  0.16723974  0.74749859  1
  B  B10  1  0.16765755  0.83382877  0.25289845  1
  B  B11  1  0.33447948  0.66723974  0.25250141  1
  B  B12  1  0.16765755  0.83382877  0.74710155  1
  B  B13  1  0.33447948  0.66723974  0.74749859  1
  B  B14  1  0.66552052  0.33276026  0.25250141  1
  B  B15  1  0.83234245  0.16617123  0.25289845  1
  B  B16  1  0.66552052  0.33276026  0.74749859  1
  B  B17  1  0.83234245  0.16617123  0.74710155  1
  B  B18  1  0.66552052  0.83276026  0.25250141  1
  B  B19  1  0.83234245  0.66617123  0.25289845  1
  B  B20  1  0.66552052  0.83276026  0.74749859  1
  B  B21  1  0.83234245  0.66617123  0.74710155  1
  Ta  Ta22  1  0.50000000  0.00000000  0.50000000  1
  Ta  Ta23  1  0.50000000  0.50000000  0.50000000  1
