# generated using pymatgen
data_Hf3SiB8
_symmetry_space_group_name_H-M   'P 1'
_cell_length_a   6.20593052
_cell_length_b   6.20593053
_cell_length_c   7.07074323
_cell_angle_alpha   90.00000000
_cell_angle_beta   90.00000000
_cell_angle_gamma   120.12754021
_symmetry_Int_Tables_number   1
_chemical_formula_structural   Hf3SiB8
_chemical_formula_sum   'Hf6 Si2 B16'
_cell_volume   235.53200779
_cell_formula_units_Z   2
loop_
 _symmetry_equiv_pos_site_id
 _symmetry_equiv_pos_as_xyz
  1  'x, y, z'
loop_
 _atom_site_type_symbol
 _atom_site_label
 _atom_site_symmetry_multiplicity
 _atom_site_fract_x
 _atom_site_fract_y
 _atom_site_fract_z
 _atom_site_occupancy
  Hf  Hf0  1  0.00000000  0.00000000  0.00000000  1
  Hf  Hf1  1  0.00000000  0.00000000  0.50000000  1
  Hf  Hf2  1  0.00000000  0.50000000  0.00000000  1
  Hf  Hf3  1  0.50000000  0.00000000  0.00000000  1
  Hf  Hf4  1  0.50000000  0.50000000  0.00000000  1
  Hf  Hf5  1  0.50000000  0.50000000  0.50000000  1
  B  B6  1  0.16656933  0.33343067  0.24877610  1
  B  B7  1  0.33343067  0.16656933  0.24877610  1
  B  B8  1  0.16656933  0.33343067  0.75122390  1
  B  B9  1  0.33343067  0.16656933  0.75122390  1
  B  B10  1  0.16735007  0.83264993  0.25110146  1
  B  B11  1  0.33264993  0.66735007  0.25110146  1
  B  B12  1  0.16735007  0.83264993  0.74889854  1
  B  B13  1  0.33264993  0.66735007  0.74889854  1
  B  B14  1  0.66735007  0.33264993  0.25110146  1
  B  B15  1  0.83264993  0.16735007  0.25110146  1
  B  B16  1  0.66735007  0.33264993  0.74889854  1
  B  B17  1  0.83264993  0.16735007  0.74889854  1
  B  B18  1  0.66656933  0.83343067  0.24877610  1
  B  B19  1  0.83343067  0.66656933  0.24877610  1
  B  B20  1  0.66656933  0.83343067  0.75122390  1
  B  B21  1  0.83343067  0.66656933  0.75122390  1
  Si  Si22  1  0.00000000  0.50000000  0.50000000  1
  Si  Si23  1  0.50000000  0.00000000  0.50000000  1
