# generated using pymatgen
data_Hf3VB8
_symmetry_space_group_name_H-M   'P 1'
_cell_length_a   6.20763674
_cell_length_b   6.21375723
_cell_length_c   6.81907047
_cell_angle_alpha   90.00000000
_cell_angle_beta   90.00000000
_cell_angle_gamma   119.96742212
_symmetry_Int_Tables_number   1
_chemical_formula_structural   Hf3VB8
_chemical_formula_sum   'Hf6 V2 B16'
_cell_volume   227.86565005
_cell_formula_units_Z   2
loop_
 _symmetry_equiv_pos_site_id
 _symmetry_equiv_pos_as_xyz
  1  'x, y, z'
loop_
 _atom_site_type_symbol
 _atom_site_label
 _atom_site_symmetry_multiplicity
 _atom_site_fract_x
 _atom_site_fract_y
 _atom_site_fract_z
 _atom_site_occupancy
  Hf  Hf0  1  0.00000000  0.00000000  0.00000000  1
  Hf  Hf1  1  0.00000000  0.50000000  0.00000000  1
  Hf  Hf2  1  0.00000000  0.50000000  0.50000000  1
  Hf  Hf3  1  0.50000000  0.00000000  0.50000000  1
  Hf  Hf4  1  0.50000000  0.50000000  0.00000000  1
  Hf  Hf5  1  0.50000000  0.50000000  0.50000000  1
  B  B6  1  0.16497710  0.32995419  0.25106135  1
  B  B7  1  0.33204223  0.16408448  0.25000000  1
  B  B8  1  0.16497710  0.32995419  0.74893865  1
  B  B9  1  0.33204223  0.16408448  0.75000000  1
  B  B10  1  0.16795777  0.83591552  0.25000000  1
  B  B11  1  0.33502290  0.67004581  0.24893865  1
  B  B12  1  0.16795777  0.83591552  0.75000000  1
  B  B13  1  0.33502290  0.67004581  0.75106135  1
  B  B14  1  0.66497710  0.32995419  0.24893865  1
  B  B15  1  0.83204223  0.16408448  0.25000000  1
  B  B16  1  0.66497710  0.32995419  0.75106135  1
  B  B17  1  0.83204223  0.16408448  0.75000000  1
  B  B18  1  0.66795777  0.83591552  0.25000000  1
  B  B19  1  0.83502290  0.67004581  0.25106135  1
  B  B20  1  0.66795777  0.83591552  0.75000000  1
  B  B21  1  0.83502290  0.67004581  0.74893865  1
  V  V22  1  0.00000000  0.00000000  0.50000000  1
  V  V23  1  0.50000000  0.00000000  0.00000000  1
