# generated using pymatgen
data_HfSiB4
_symmetry_space_group_name_H-M   'P 1'
_cell_length_a   6.04290475
_cell_length_b   6.09715241
_cell_length_c   7.18473933
_cell_angle_alpha   90.00000000
_cell_angle_beta   90.00000000
_cell_angle_gamma   119.70611638
_symmetry_Int_Tables_number   1
_chemical_formula_structural   HfSiB4
_chemical_formula_sum   'Hf4 Si4 B16'
_cell_volume   229.92857652
_cell_formula_units_Z   4
loop_
 _symmetry_equiv_pos_site_id
 _symmetry_equiv_pos_as_xyz
  1  'x, y, z'
loop_
 _atom_site_type_symbol
 _atom_site_label
 _atom_site_symmetry_multiplicity
 _atom_site_fract_x
 _atom_site_fract_y
 _atom_site_fract_z
 _atom_site_occupancy
  Hf  Hf0  1  0.00000000  0.00000000  0.00000000  1
  Hf  Hf1  1  0.00000000  0.00000000  0.50000000  1
  Hf  Hf2  1  0.00000000  0.50000000  0.00000000  1
  Hf  Hf3  1  0.50000000  0.50000000  0.00000000  1
  B  B4  1  0.16618425  0.33236850  0.25131629  1
  B  B5  1  0.33612915  0.16739100  0.25173423  1
  B  B6  1  0.16618425  0.33236850  0.74868371  1
  B  B7  1  0.33612915  0.16739100  0.74826577  1
  B  B8  1  0.16873815  0.83260900  0.25173423  1
  B  B9  1  0.33173451  0.66346903  0.26137355  1
  B  B10  1  0.16873815  0.83260900  0.74826577  1
  B  B11  1  0.33173451  0.66346903  0.73862645  1
  B  B12  1  0.66826549  0.33653097  0.26137355  1
  B  B13  1  0.83126185  0.16739100  0.25173423  1
  B  B14  1  0.66826549  0.33653097  0.73862645  1
  B  B15  1  0.83126185  0.16739100  0.74826577  1
  B  B16  1  0.66387085  0.83260900  0.25173423  1
  B  B17  1  0.83381575  0.66763150  0.25131629  1
  B  B18  1  0.66387085  0.83260900  0.74826577  1
  B  B19  1  0.83381575  0.66763150  0.74868371  1
  Si  Si20  1  0.00000000  0.50000000  0.50000000  1
  Si  Si21  1  0.50000000  0.00000000  0.00000000  1
  Si  Si22  1  0.50000000  0.00000000  0.50000000  1
  Si  Si23  1  0.50000000  0.50000000  0.50000000  1
