# generated using pymatgen
data_HfTaB4
_symmetry_space_group_name_H-M   'P 1'
_cell_length_a   6.24300777
_cell_length_b   6.24534452
_cell_length_c   6.79573792
_cell_angle_alpha   90.00000000
_cell_angle_beta   90.00000000
_cell_angle_gamma   120.01238244
_symmetry_Int_Tables_number   1
_chemical_formula_structural   HfTaB4
_chemical_formula_sum   'Hf4 Ta4 B16'
_cell_volume   229.43693263
_cell_formula_units_Z   4
loop_
 _symmetry_equiv_pos_site_id
 _symmetry_equiv_pos_as_xyz
  1  'x, y, z'
loop_
 _atom_site_type_symbol
 _atom_site_label
 _atom_site_symmetry_multiplicity
 _atom_site_fract_x
 _atom_site_fract_y
 _atom_site_fract_z
 _atom_site_occupancy
  Hf  Hf0  1  0.00000000  0.00000000  0.00000000  1
  Hf  Hf1  1  0.00000000  0.00000000  0.50000000  1
  Hf  Hf2  1  0.50000000  0.00000000  0.00000000  1
  Hf  Hf3  1  0.50000000  0.50000000  0.00000000  1
  B  B4  1  0.16646089  0.33443106  0.25260730  1
  B  B5  1  0.33439951  0.16719976  0.25259518  1
  B  B6  1  0.16646089  0.33443106  0.74739270  1
  B  B7  1  0.33439951  0.16719976  0.74740482  1
  B  B8  1  0.16646089  0.83202982  0.25260730  1
  B  B9  1  0.33260422  0.66630212  0.25257392  1
  B  B10  1  0.16646089  0.83202982  0.74739270  1
  B  B11  1  0.33260422  0.66630212  0.74742608  1
  B  B12  1  0.66739578  0.33369788  0.25257392  1
  B  B13  1  0.83353911  0.16797018  0.25260730  1
  B  B14  1  0.66739578  0.33369788  0.74742608  1
  B  B15  1  0.83353911  0.16797018  0.74739270  1
  B  B16  1  0.66560049  0.83280024  0.25259518  1
  B  B17  1  0.83353911  0.66556894  0.25260730  1
  B  B18  1  0.66560049  0.83280024  0.74740482  1
  B  B19  1  0.83353911  0.66556894  0.74739270  1
  Ta  Ta20  1  0.00000000  0.50000000  0.00000000  1
  Ta  Ta21  1  0.00000000  0.50000000  0.50000000  1
  Ta  Ta22  1  0.50000000  0.00000000  0.50000000  1
  Ta  Ta23  1  0.50000000  0.50000000  0.50000000  1
