# generated using pymatgen
data_Hf3B8Mo
_symmetry_space_group_name_H-M   'P 1'
_cell_length_a   6.23790190
_cell_length_b   6.23790191
_cell_length_c   6.83928936
_cell_angle_alpha   90.00000000
_cell_angle_beta   90.00000000
_cell_angle_gamma   119.78307119
_symmetry_Int_Tables_number   1
_chemical_formula_structural   Hf3B8Mo
_chemical_formula_sum   'Hf6 B16 Mo2'
_cell_volume   230.97441718
_cell_formula_units_Z   2
loop_
 _symmetry_equiv_pos_site_id
 _symmetry_equiv_pos_as_xyz
  1  'x, y, z'
loop_
 _atom_site_type_symbol
 _atom_site_label
 _atom_site_symmetry_multiplicity
 _atom_site_fract_x
 _atom_site_fract_y
 _atom_site_fract_z
 _atom_site_occupancy
  Mo  Mo0  1  0.00000000  0.00000000  0.00000000  1
  Mo  Mo1  1  0.50000000  0.50000000  0.00000000  1
  B  B2  1  0.16728220  0.33271780  0.24652829  1
  B  B3  1  0.33271780  0.16728220  0.24652829  1
  B  B4  1  0.16728220  0.33271780  0.75347171  1
  B  B5  1  0.33271780  0.16728220  0.75347171  1
  B  B6  1  0.16590858  0.83409142  0.24605743  1
  B  B7  1  0.33409142  0.66590858  0.24605743  1
  B  B8  1  0.16590858  0.83409142  0.75394257  1
  B  B9  1  0.33409142  0.66590858  0.75394257  1
  B  B10  1  0.66590858  0.33409142  0.24605743  1
  B  B11  1  0.83409142  0.16590858  0.24605743  1
  B  B12  1  0.66590858  0.33409142  0.75394257  1
  B  B13  1  0.83409142  0.16590858  0.75394257  1
  B  B14  1  0.66728220  0.83271780  0.24652829  1
  B  B15  1  0.83271780  0.66728220  0.24652829  1
  B  B16  1  0.66728220  0.83271780  0.75347171  1
  B  B17  1  0.83271780  0.66728220  0.75347171  1
  Hf  Hf18  1  0.00000000  0.00000000  0.50000000  1
  Hf  Hf19  1  0.00000000  0.50000000  0.00000000  1
  Hf  Hf20  1  0.00000000  0.50000000  0.50000000  1
  Hf  Hf21  1  0.50000000  0.00000000  0.00000000  1
  Hf  Hf22  1  0.50000000  0.00000000  0.50000000  1
  Hf  Hf23  1  0.50000000  0.50000000  0.50000000  1
