# generated using pymatgen
data_HfZrB4
_symmetry_space_group_name_H-M   'P 1'
_cell_length_a   6.31555574
_cell_length_b   6.31555574
_cell_length_c   7.02928958
_cell_angle_alpha   90.00000000
_cell_angle_beta   90.00000000
_cell_angle_gamma   120.00000000
_symmetry_Int_Tables_number   1
_chemical_formula_structural   HfZrB4
_chemical_formula_sum   'Hf4 Zr4 B16'
_cell_volume   242.80924116
_cell_formula_units_Z   4
loop_
 _symmetry_equiv_pos_site_id
 _symmetry_equiv_pos_as_xyz
  1  'x, y, z'
loop_
 _atom_site_type_symbol
 _atom_site_label
 _atom_site_symmetry_multiplicity
 _atom_site_fract_x
 _atom_site_fract_y
 _atom_site_fract_z
 _atom_site_occupancy
  Hf  Hf0  1  0.00000000  0.00000000  0.00000000  1
  Hf  Hf1  1  0.00000000  0.50000000  0.50000000  1
  Hf  Hf2  1  0.50000000  0.00000000  0.50000000  1
  Hf  Hf3  1  0.50000000  0.50000000  0.50000000  1
  B  B4  1  0.16666197  0.33332392  0.25140338  1
  B  B5  1  0.33332392  0.16666197  0.25140338  1
  B  B6  1  0.16666197  0.33332392  0.74859662  1
  B  B7  1  0.33332392  0.16666197  0.74859662  1
  B  B8  1  0.16666197  0.83333803  0.25140338  1
  B  B9  1  0.33333333  0.66666667  0.25259594  1
  B  B10  1  0.16666197  0.83333803  0.74859662  1
  B  B11  1  0.33333333  0.66666667  0.74740406  1
  B  B12  1  0.66666667  0.33333333  0.25259594  1
  B  B13  1  0.83333803  0.16666197  0.25140338  1
  B  B14  1  0.66666667  0.33333333  0.74740406  1
  B  B15  1  0.83333803  0.16666197  0.74859662  1
  B  B16  1  0.66667608  0.83333803  0.25140338  1
  B  B17  1  0.83333803  0.66667608  0.25140338  1
  B  B18  1  0.66667608  0.83333803  0.74859662  1
  B  B19  1  0.83333803  0.66667608  0.74859662  1
  Zr  Zr20  1  0.00000000  0.00000000  0.50000000  1
  Zr  Zr21  1  0.00000000  0.50000000  0.00000000  1
  Zr  Zr22  1  0.50000000  0.00000000  0.00000000  1
  Zr  Zr23  1  0.50000000  0.50000000  0.00000000  1
