# generated using pymatgen
data_HfAlB4
_symmetry_space_group_name_H-M   'P 1'
_cell_length_a   6.07297642
_cell_length_b   6.07297642
_cell_length_c   7.03739781
_cell_angle_alpha   90.00000000
_cell_angle_beta   90.00000000
_cell_angle_gamma   119.05160731
_symmetry_Int_Tables_number   1
_chemical_formula_structural   HfAlB4
_chemical_formula_sum   'Hf4 Al4 B16'
_cell_volume   226.89111380
_cell_formula_units_Z   4
loop_
 _symmetry_equiv_pos_site_id
 _symmetry_equiv_pos_as_xyz
  1  'x, y, z'
loop_
 _atom_site_type_symbol
 _atom_site_label
 _atom_site_symmetry_multiplicity
 _atom_site_fract_x
 _atom_site_fract_y
 _atom_site_fract_z
 _atom_site_occupancy
  Hf  Hf0  1  0.00000000  0.00000000  0.00000000  1
  Hf  Hf1  1  0.00000000  0.50000000  0.50000000  1
  Hf  Hf2  1  0.50000000  0.00000000  0.50000000  1
  Hf  Hf3  1  0.50000000  0.50000000  0.00000000  1
  B  B4  1  0.16644543  0.33355457  0.24882510  1
  B  B5  1  0.33355457  0.16644543  0.24882510  1
  B  B6  1  0.16644543  0.33355457  0.75117490  1
  B  B7  1  0.33355457  0.16644543  0.75117490  1
  B  B8  1  0.16644543  0.83355457  0.25117490  1
  B  B9  1  0.33355457  0.66644543  0.25117490  1
  B  B10  1  0.16644543  0.83355457  0.74882510  1
  B  B11  1  0.33355457  0.66644543  0.74882510  1
  B  B12  1  0.66644543  0.33355457  0.25117490  1
  B  B13  1  0.83355457  0.16644543  0.25117490  1
  B  B14  1  0.66644543  0.33355457  0.74882510  1
  B  B15  1  0.83355457  0.16644543  0.74882510  1
  B  B16  1  0.66644543  0.83355457  0.24882510  1
  B  B17  1  0.83355457  0.66644543  0.24882510  1
  B  B18  1  0.66644543  0.83355457  0.75117490  1
  B  B19  1  0.83355457  0.66644543  0.75117490  1
  Al  Al20  1  0.00000000  0.00000000  0.50000000  1
  Al  Al21  1  0.00000000  0.50000000  0.00000000  1
  Al  Al22  1  0.50000000  0.00000000  0.00000000  1
  Al  Al23  1  0.50000000  0.50000000  0.50000000  1
