# generated using pymatgen
data_Hf3ZrB8
_symmetry_space_group_name_H-M   'P 1'
_cell_length_a   6.30223195
_cell_length_b   6.30122522
_cell_length_c   6.99905237
_cell_angle_alpha   90.00000000
_cell_angle_beta   90.00000000
_cell_angle_gamma   120.00528527
_symmetry_Int_Tables_number   1
_chemical_formula_structural   Hf3ZrB8
_chemical_formula_sum   'Hf6 Zr2 B16'
_cell_volume   240.69447873
_cell_formula_units_Z   2
loop_
 _symmetry_equiv_pos_site_id
 _symmetry_equiv_pos_as_xyz
  1  'x, y, z'
loop_
 _atom_site_type_symbol
 _atom_site_label
 _atom_site_symmetry_multiplicity
 _atom_site_fract_x
 _atom_site_fract_y
 _atom_site_fract_z
 _atom_site_occupancy
  Hf  Hf0  1  0.00000000  0.00000000  0.00000000  1
  Hf  Hf1  1  0.00000000  0.00000000  0.50000000  1
  Hf  Hf2  1  0.00000000  0.50000000  0.00000000  1
  Hf  Hf3  1  0.50000000  0.00000000  0.00000000  1
  Hf  Hf4  1  0.50000000  0.00000000  0.50000000  1
  Hf  Hf5  1  0.50000000  0.50000000  0.50000000  1
  B  B6  1  0.16636239  0.33272477  0.25000000  1
  B  B7  1  0.33302488  0.16604977  0.25039206  1
  B  B8  1  0.16636239  0.33272477  0.75000000  1
  B  B9  1  0.33302488  0.16604977  0.74960794  1
  B  B10  1  0.16697512  0.83395023  0.24960794  1
  B  B11  1  0.33363761  0.66727523  0.25000000  1
  B  B12  1  0.16697512  0.83395023  0.75039206  1
  B  B13  1  0.33363761  0.66727523  0.75000000  1
  B  B14  1  0.66636239  0.33272477  0.25000000  1
  B  B15  1  0.83302488  0.16604977  0.24960794  1
  B  B16  1  0.66636239  0.33272477  0.75000000  1
  B  B17  1  0.83302488  0.16604977  0.75039206  1
  B  B18  1  0.66697512  0.83395023  0.25039206  1
  B  B19  1  0.83363761  0.66727523  0.25000000  1
  B  B20  1  0.66697512  0.83395023  0.74960794  1
  B  B21  1  0.83363761  0.66727523  0.75000000  1
  Zr  Zr22  1  0.00000000  0.50000000  0.50000000  1
  Zr  Zr23  1  0.50000000  0.50000000  0.00000000  1
