# generated using pymatgen
data_Hf3CrB8
_symmetry_space_group_name_H-M   'P 1'
_cell_length_a   6.20038793
_cell_length_b   6.22354339
_cell_length_c   6.75351377
_cell_angle_alpha   90.00000000
_cell_angle_beta   90.00000000
_cell_angle_gamma   120.12361394
_symmetry_Int_Tables_number   1
_chemical_formula_structural   Hf3CrB8
_chemical_formula_sum   'Hf6 Cr2 B16'
_cell_volume   225.41078531
_cell_formula_units_Z   2
loop_
 _symmetry_equiv_pos_site_id
 _symmetry_equiv_pos_as_xyz
  1  'x, y, z'
loop_
 _atom_site_type_symbol
 _atom_site_label
 _atom_site_symmetry_multiplicity
 _atom_site_fract_x
 _atom_site_fract_y
 _atom_site_fract_z
 _atom_site_occupancy
  Hf  Hf0  1  0.00000000  0.00000000  0.00000000  1
  Hf  Hf1  1  0.00000000  0.00000000  0.50000000  1
  Hf  Hf2  1  0.00000000  0.50000000  0.00000000  1
  Hf  Hf3  1  0.00000000  0.50000000  0.50000000  1
  Hf  Hf4  1  0.50000000  0.00000000  0.50000000  1
  Hf  Hf5  1  0.50000000  0.50000000  0.50000000  1
  B  B6  1  0.17129585  0.33564792  0.24222925  1
  B  B7  1  0.33668029  0.16834015  0.24082506  1
  B  B8  1  0.17129585  0.33564792  0.75777075  1
  B  B9  1  0.33668029  0.16834015  0.75917494  1
  B  B10  1  0.17129585  0.83564792  0.24222925  1
  B  B11  1  0.33668029  0.66834015  0.24082506  1
  B  B12  1  0.17129585  0.83564792  0.75777075  1
  B  B13  1  0.33668029  0.66834015  0.75917494  1
  B  B14  1  0.66331971  0.33165985  0.24082506  1
  B  B15  1  0.82870415  0.16435208  0.24222925  1
  B  B16  1  0.66331971  0.33165985  0.75917494  1
  B  B17  1  0.82870415  0.16435208  0.75777075  1
  B  B18  1  0.66331971  0.83165985  0.24082506  1
  B  B19  1  0.82870415  0.66435208  0.24222925  1
  B  B20  1  0.66331971  0.83165985  0.75917494  1
  B  B21  1  0.82870415  0.66435208  0.75777075  1
  Cr  Cr22  1  0.50000000  0.00000000  0.00000000  1
  Cr  Cr23  1  0.50000000  0.50000000  0.00000000  1
