# generated using pymatgen
data_Hf15NbC16
_symmetry_space_group_name_H-M   'P 1'
_cell_length_a   9.26965984
_cell_length_b   9.26965984
_cell_length_c   4.63420726
_cell_angle_alpha   90.00000000
_cell_angle_beta   90.00000000
_cell_angle_gamma   90.00000000
_symmetry_Int_Tables_number   1
_chemical_formula_structural   Hf15NbC16
_chemical_formula_sum   'Hf15 Nb1 C16'
_cell_volume   398.20164365
_cell_formula_units_Z   1
loop_
 _symmetry_equiv_pos_site_id
 _symmetry_equiv_pos_as_xyz
  1  'x, y, z'
loop_
 _atom_site_type_symbol
 _atom_site_label
 _atom_site_symmetry_multiplicity
 _atom_site_fract_x
 _atom_site_fract_y
 _atom_site_fract_z
 _atom_site_occupancy
  Hf  Hf0  1  0.99974852  0.00025148  0.00000000  1
  Hf  Hf1  1  0.99926360  0.25000000  0.50000000  1
  Hf  Hf2  1  0.25000000  0.99993239  0.50000000  1
  Hf  Hf3  1  0.25000000  0.25000000  0.00000000  1
  Hf  Hf4  1  0.99974852  0.49974852  0.00000000  1
  Hf  Hf5  1  0.00006761  0.75000000  0.50000000  1
  Hf  Hf6  1  0.25000000  0.50006761  0.50000000  1
  Hf  Hf7  1  0.25000000  0.75000000  0.00000000  1
  Hf  Hf8  1  0.50025148  0.00025148  0.00000000  1
  Hf  Hf9  1  0.50073640  0.25000000  0.50000000  1
  Hf  Hf10  1  0.75000000  0.00073640  0.50000000  1
  Hf  Hf11  1  0.50025148  0.49974852  0.00000000  1
  Hf  Hf12  1  0.49993239  0.75000000  0.50000000  1
  Hf  Hf13  1  0.75000000  0.49926360  0.50000000  1
  Hf  Hf14  1  0.75000000  0.75000000  0.00000000  1
  C  C15  1  0.25000000  0.25000000  0.50000000  1
  C  C16  1  0.25000000  0.00029758  0.00000000  1
  C  C17  1  0.99628059  0.25000000  0.00000000  1
  C  C18  1  0.99936754  0.00063246  0.50000000  1
  C  C19  1  0.25000000  0.75000000  0.50000000  1
  C  C20  1  0.25000000  0.49970242  -0.00000000  1
  C  C21  1  0.99970242  0.75000000  0.00000000  1
  C  C22  1  0.99936754  0.49936754  0.50000000  1
  C  C23  1  0.75000000  0.25000000  0.50000000  1
  C  C24  1  0.75000000  0.00371941  -0.00000000  1
  C  C25  1  0.50371941  0.25000000  0.00000000  1
  C  C26  1  0.50063246  0.00063246  0.50000000  1
  C  C27  1  0.75000000  0.75000000  0.50000000  1
  C  C28  1  0.75000000  0.49628059  0.00000000  1
  C  C29  1  0.50029758  0.75000000  0.00000000  1
  C  C30  1  0.50063246  0.49936754  0.50000000  1
  Nb  Nb31  1  0.75000000  0.25000000  0.00000000  1
