# generated using pymatgen
data_Hf3NbB8
_symmetry_space_group_name_H-M   'P 1'
_cell_length_a   6.26712347
_cell_length_b   6.26940908
_cell_length_c   6.89054486
_cell_angle_alpha   90.00000000
_cell_angle_beta   90.00000000
_cell_angle_gamma   120.01206485
_symmetry_Int_Tables_number   1
_chemical_formula_structural   Hf3NbB8
_chemical_formula_sum   'Hf6 Nb2 B16'
_cell_volume   234.43704796
_cell_formula_units_Z   2
loop_
 _symmetry_equiv_pos_site_id
 _symmetry_equiv_pos_as_xyz
  1  'x, y, z'
loop_
 _atom_site_type_symbol
 _atom_site_label
 _atom_site_symmetry_multiplicity
 _atom_site_fract_x
 _atom_site_fract_y
 _atom_site_fract_z
 _atom_site_occupancy
  Hf  Hf0  1  0.00000000  0.00000000  0.00000000  1
  Hf  Hf1  1  0.00000000  0.00000000  0.50000000  1
  Hf  Hf2  1  0.00000000  0.50000000  0.00000000  1
  Hf  Hf3  1  0.00000000  0.50000000  0.50000000  1
  Hf  Hf4  1  0.50000000  0.00000000  0.00000000  1
  Hf  Hf5  1  0.50000000  0.50000000  0.00000000  1
  B  B6  1  0.16738456  0.33369228  0.25223272  1
  B  B7  1  0.33432152  0.16716077  0.25186518  1
  B  B8  1  0.16738456  0.33369228  0.74776728  1
  B  B9  1  0.33432152  0.16716077  0.74813482  1
  B  B10  1  0.16738456  0.83369228  0.25223272  1
  B  B11  1  0.33432152  0.66716077  0.25186518  1
  B  B12  1  0.16738456  0.83369228  0.74776728  1
  B  B13  1  0.33432152  0.66716077  0.74813482  1
  B  B14  1  0.66567848  0.33283923  0.25186518  1
  B  B15  1  0.83261544  0.16630772  0.25223272  1
  B  B16  1  0.66567848  0.33283923  0.74813482  1
  B  B17  1  0.83261544  0.16630772  0.74776728  1
  B  B18  1  0.66567848  0.83283923  0.25186518  1
  B  B19  1  0.83261544  0.66630772  0.25223272  1
  B  B20  1  0.66567848  0.83283923  0.74813482  1
  B  B21  1  0.83261544  0.66630772  0.74776728  1
  Nb  Nb22  1  0.50000000  0.00000000  0.50000000  1
  Nb  Nb23  1  0.50000000  0.50000000  0.50000000  1
