# generated using pymatgen
data_Hf7NbC8
_symmetry_space_group_name_H-M   'P 1'
_cell_length_a   9.25436132
_cell_length_b   9.23817554
_cell_length_c   4.62665205
_cell_angle_alpha   90.00000000
_cell_angle_beta   90.00000000
_cell_angle_gamma   90.00000000
_symmetry_Int_Tables_number   1
_chemical_formula_structural   Hf7NbC8
_chemical_formula_sum   'Hf14 Nb2 C16'
_cell_volume   395.54828092
_cell_formula_units_Z   2
loop_
 _symmetry_equiv_pos_site_id
 _symmetry_equiv_pos_as_xyz
  1  'x, y, z'
loop_
 _atom_site_type_symbol
 _atom_site_label
 _atom_site_symmetry_multiplicity
 _atom_site_fract_x
 _atom_site_fract_y
 _atom_site_fract_z
 _atom_site_occupancy
  Hf  Hf0  1  0.00015661  0.00000000  0.00000000  1
  Hf  Hf1  1  0.00022266  0.25184560  0.50000000  1
  Hf  Hf2  1  0.24984339  0.00000000  0.50000000  1
  Hf  Hf3  1  0.24977734  0.25184560  0.00000000  1
  Hf  Hf4  1  0.00022266  0.74815440  0.50000000  1
  Hf  Hf5  1  0.24977734  0.74815440  0.00000000  1
  Hf  Hf6  1  0.49996937  0.00000000  0.00000000  1
  Hf  Hf7  1  0.49978244  0.25084878  0.50000000  1
  Hf  Hf8  1  0.75003063  0.00000000  0.50000000  1
  Hf  Hf9  1  0.75021756  0.25084878  -0.00000000  1
  Hf  Hf10  1  0.49923067  0.50000000  0.00000000  1
  Hf  Hf11  1  0.49978244  0.74915122  0.50000000  1
  Hf  Hf12  1  0.75076933  0.50000000  0.50000000  1
  Hf  Hf13  1  0.75021756  0.74915122  0.00000000  1
  C  C14  1  0.24934598  0.25452644  0.50000000  1
  C  C15  1  0.24954968  0.00000000  0.00000000  1
  C  C16  1  0.00065402  0.25452644  0.00000000  1
  C  C17  1  0.00045032  0.00000000  0.50000000  1
  C  C18  1  0.24934598  0.74547356  0.50000000  1
  C  C19  1  0.24722059  0.50000000  0.00000000  1
  C  C20  1  0.00065402  0.74547356  -0.00000000  1
  C  C21  1  0.00277941  0.50000000  0.50000000  1
  C  C22  1  0.75048735  0.25088024  0.50000000  1
  C  C23  1  0.75034158  0.00000000  0.00000000  1
  C  C24  1  0.49951265  0.25088024  -0.00000000  1
  C  C25  1  0.49965842  0.00000000  0.50000000  1
  C  C26  1  0.75048735  0.74911976  0.50000000  1
  C  C27  1  0.75331130  0.50000000  0.00000000  1
  C  C28  1  0.49951265  0.74911976  0.00000000  1
  C  C29  1  0.49668870  0.50000000  0.50000000  1
  Nb  Nb30  1  0.00060336  0.50000000  0.00000000  1
  Nb  Nb31  1  0.24939664  0.50000000  0.50000000  1
