# generated using pymatgen
data_Hf5Nb3C8
_symmetry_space_group_name_H-M   'P 1'
_cell_length_a   9.16902168
_cell_length_b   9.16961897
_cell_length_c   4.57953885
_cell_angle_alpha   90.00000000
_cell_angle_beta   90.00000000
_cell_angle_gamma   90.00000000
_symmetry_Int_Tables_number   1
_chemical_formula_structural   Hf5Nb3C8
_chemical_formula_sum   'Hf10 Nb6 C16'
_cell_volume   385.03130106
_cell_formula_units_Z   2
loop_
 _symmetry_equiv_pos_site_id
 _symmetry_equiv_pos_as_xyz
  1  'x, y, z'
loop_
 _atom_site_type_symbol
 _atom_site_label
 _atom_site_symmetry_multiplicity
 _atom_site_fract_x
 _atom_site_fract_y
 _atom_site_fract_z
 _atom_site_occupancy
  Hf  Hf0  1  0.99952061  0.99964446  0.00000000  1
  Hf  Hf1  1  0.99952061  0.25035554  0.50000000  1
  Hf  Hf2  1  0.25204578  0.99987023  0.50000000  1
  Hf  Hf3  1  0.25204578  0.25012977  0.00000000  1
  Hf  Hf4  1  0.99862317  0.50015039  0.00000000  1
  Hf  Hf5  1  0.99862317  0.74984961  0.50000000  1
  Hf  Hf6  1  0.25150573  0.50020106  0.50000000  1
  Hf  Hf7  1  0.25150573  0.74979894  0.00000000  1
  Hf  Hf8  1  0.74840337  0.99848344  0.50000000  1
  Hf  Hf9  1  0.74840337  0.25151656  0.00000000  1
  C  C10  1  0.25485834  0.25047571  0.50000000  1
  C  C11  1  0.25485834  0.99952429  0.00000000  1
  C  C12  1  0.99899354  0.25077183  0.00000000  1
  C  C13  1  0.99899354  0.99922817  0.50000000  1
  C  C14  1  0.25475333  0.74982005  0.50000000  1
  C  C15  1  0.25475333  0.50017995  0.00000000  1
  C  C16  1  0.99604350  0.74946587  0.00000000  1
  C  C17  1  0.99604350  0.50053413  0.50000000  1
  C  C18  1  0.74501933  0.25291964  0.50000000  1
  C  C19  1  0.74501933  0.99708036  0.00000000  1
  C  C20  1  0.50062570  0.25114590  0.00000000  1
  C  C21  1  0.50062570  0.99885410  0.50000000  1
  C  C22  1  0.74649167  0.74814849  0.50000000  1
  C  C23  1  0.74649167  0.50185151  0.00000000  1
  C  C24  1  0.50274401  0.74930579  0.00000000  1
  C  C25  1  0.50274401  0.50069421  0.50000000  1
  Nb  Nb26  1  0.50081395  0.99846350  0.00000000  1
  Nb  Nb27  1  0.50081395  0.25153650  0.50000000  1
  Nb  Nb28  1  0.50046797  0.50103637  0.00000000  1
  Nb  Nb29  1  0.50046797  0.74896363  0.50000000  1
  Nb  Nb30  1  0.74909004  0.50187996  0.50000000  1
  Nb  Nb31  1  0.74909004  0.74812004  0.00000000  1
