# generated using pymatgen
data_Hf9Nb7C16
_symmetry_space_group_name_H-M   'P 1'
_cell_length_a   9.13690735
_cell_length_b   9.15304461
_cell_length_c   4.57049752
_cell_angle_alpha   90.00000000
_cell_angle_beta   90.00000000
_cell_angle_gamma   90.01558834
_symmetry_Int_Tables_number   1
_chemical_formula_structural   Hf9Nb7C16
_chemical_formula_sum   'Hf9 Nb7 C16'
_cell_volume   382.23307267
_cell_formula_units_Z   1
loop_
 _symmetry_equiv_pos_site_id
 _symmetry_equiv_pos_as_xyz
  1  'x, y, z'
loop_
 _atom_site_type_symbol
 _atom_site_label
 _atom_site_symmetry_multiplicity
 _atom_site_fract_x
 _atom_site_fract_y
 _atom_site_fract_z
 _atom_site_occupancy
  Hf  Hf0  1  0.99987001  0.00045613  0.00000000  1
  Hf  Hf1  1  0.24964432  0.99964841  0.50000000  1
  Hf  Hf2  1  0.24908304  0.25065397  0.00000000  1
  Hf  Hf3  1  -0.00000870  0.74877512  0.50000000  1
  Hf  Hf4  1  0.50042550  0.99940120  0.00000000  1
  Hf  Hf5  1  0.50109365  0.25073197  0.50000000  1
  Hf  Hf6  1  0.75047911  0.00069504  0.50000000  1
  Hf  Hf7  1  0.50053916  0.50008624  0.00000000  1
  Hf  Hf8  1  0.49993024  0.74925762  0.50000000  1
  Nb  Nb9  1  0.99939053  0.25271625  0.50000000  1
  Nb  Nb10  1  0.99955127  0.50030851  0.00000000  1
  Nb  Nb11  1  0.24826302  0.49992124  0.50000000  1
  Nb  Nb12  1  0.25030485  0.74891896  0.00000000  1
  Nb  Nb13  1  0.75108462  0.24989000  0.00000000  1
  Nb  Nb14  1  0.75091197  0.49940866  0.50000000  1
  Nb  Nb15  1  0.74975409  0.74913712  0.00000000  1
  C  C16  1  0.24639648  0.25374784  0.50000000  1
  C  C17  1  0.24919740  0.99791034  0.00000000  1
  C  C18  1  0.99800904  0.25357530  0.00000000  1
  C  C19  1  0.99963637  0.00183462  0.50000000  1
  C  C20  1  0.24921356  0.74707395  0.50000000  1
  C  C21  1  0.24691103  0.50171881  0.00000000  1
  C  C22  1  0.00004396  0.74597694  0.00000000  1
  C  C23  1  0.99942803  0.49860059  0.50000000  1
  C  C24  1  0.75252753  0.25284760  0.50000000  1
  C  C25  1  0.75056501  0.00092071  0.00000000  1
  C  C26  1  0.50279311  0.25144842  0.00000000  1
  C  C27  1  0.50077539  0.99916585  0.50000000  1
  C  C28  1  0.75064560  0.74675896  0.50000000  1
  C  C29  1  0.75265671  0.49948988  0.00000000  1
  C  C30  1  0.49993199  0.74866692  0.00000000  1
  C  C31  1  0.50095212  0.50025685  0.50000000  1
