# generated using pymatgen
data_HfNbC2
_symmetry_space_group_name_H-M   'P 1'
_cell_length_a   9.11064605
_cell_length_b   9.12739778
_cell_length_c   4.56223154
_cell_angle_alpha   90.00000000
_cell_angle_beta   90.00000000
_cell_angle_gamma   90.03412563
_symmetry_Int_Tables_number   1
_chemical_formula_structural   HfNbC2
_chemical_formula_sum   'Hf8 Nb8 C16'
_cell_volume   379.37909652
_cell_formula_units_Z   8
loop_
 _symmetry_equiv_pos_site_id
 _symmetry_equiv_pos_as_xyz
  1  'x, y, z'
loop_
 _atom_site_type_symbol
 _atom_site_label
 _atom_site_symmetry_multiplicity
 _atom_site_fract_x
 _atom_site_fract_y
 _atom_site_fract_z
 _atom_site_occupancy
  Hf  Hf0  1  0.99890683  0.99927643  0.00000000  1
  Hf  Hf1  1  0.99932911  0.25080258  0.50000000  1
  Hf  Hf2  1  0.25071101  0.99875833  0.50000000  1
  Hf  Hf3  1  0.25006123  0.25111210  0.00000000  1
  Hf  Hf4  1  0.50065770  0.24940646  0.50000000  1
  Hf  Hf5  1  0.49924006  0.50068920  0.00000000  1
  Hf  Hf6  1  0.75098915  0.49978798  0.50000000  1
  Hf  Hf7  1  0.75007508  0.75051739  0.00000000  1
  C  C8  1  0.24998807  0.25261696  0.50000000  1
  C  C9  1  0.25244249  0.99622555  0.00000000  1
  C  C10  1  0.99732582  0.25244745  0.00000000  1
  C  C11  1  0.99751880  0.99754401  0.50000000  1
  C  C12  1  0.24998928  0.74820659  0.50000000  1
  C  C13  1  0.24810053  0.50322862  0.00000000  1
  C  C14  1  0.00210380  0.74796658  0.00000000  1
  C  C15  1  0.00192215  0.50169799  0.50000000  1
  C  C16  1  0.75002088  0.24787093  0.50000000  1
  C  C17  1  0.74814204  0.00058665  0.00000000  1
  C  C18  1  0.50265156  0.24746529  0.00000000  1
  C  C19  1  0.50197385  0.99831940  0.50000000  1
  C  C20  1  0.74992257  0.75229096  0.50000000  1
  C  C21  1  0.75237057  0.49889098  0.00000000  1
  C  C22  1  0.49790024  0.75208409  0.00000000  1
  C  C23  1  0.49760238  0.50253967  0.50000000  1
  Nb  Nb24  1  0.00111495  0.50018361  0.00000000  1
  Nb  Nb25  1  0.00136323  0.74891421  0.50000000  1
  Nb  Nb26  1  0.24910078  0.50210787  0.50000000  1
  Nb  Nb27  1  0.25003854  0.74971514  0.00000000  1
  Nb  Nb28  1  0.50102493  0.99976288  0.00000000  1
  Nb  Nb29  1  0.74883022  0.99963370  0.50000000  1
  Nb  Nb30  1  0.74992586  0.24852358  0.00000000  1
  Nb  Nb31  1  0.49865628  0.75082684  0.50000000  1
