# generated using pymatgen
data_Hf13V3C16
_symmetry_space_group_name_H-M   'P 1'
_cell_length_a   9.15386413
_cell_length_b   9.11408999
_cell_length_c   4.58181900
_cell_angle_alpha   90.00000000
_cell_angle_beta   90.00000000
_cell_angle_gamma   89.96419401
_symmetry_Int_Tables_number   1
_chemical_formula_structural   Hf13V3C16
_chemical_formula_sum   'Hf13 V3 C16'
_cell_volume   382.25715073
_cell_formula_units_Z   1
loop_
 _symmetry_equiv_pos_site_id
 _symmetry_equiv_pos_as_xyz
  1  'x, y, z'
loop_
 _atom_site_type_symbol
 _atom_site_label
 _atom_site_symmetry_multiplicity
 _atom_site_fract_x
 _atom_site_fract_y
 _atom_site_fract_z
 _atom_site_occupancy
  Hf  Hf0  1  0.00312723  0.99838782  0.00000000  1
  Hf  Hf1  1  0.00147076  0.24667068  0.50000000  1
  Hf  Hf2  1  0.25202892  0.24582428  0.00000000  1
  Hf  Hf3  1  0.99786287  0.50224369  0.00000000  1
  Hf  Hf4  1  0.99851405  0.75278072  0.50000000  1
  Hf  Hf5  1  0.25068040  0.50014119  0.50000000  1
  Hf  Hf6  1  0.25209936  0.75418714  0.00000000  1
  Hf  Hf7  1  0.49847282  0.24498634  0.50000000  1
  Hf  Hf8  1  0.74640814  0.99711947  0.50000000  1
  Hf  Hf9  1  0.74801327  0.24712896  0.00000000  1
  Hf  Hf10  1  0.50187776  0.50133364  0.00000000  1
  Hf  Hf11  1  0.50126292  0.75408822  0.50000000  1
  Hf  Hf12  1  0.74973614  0.50283527  0.50000000  1
  V  V13  1  0.25899269  0.99830289  0.50000000  1
  V  V14  1  0.49360267  0.99765648  0.00000000  1
  V  V15  1  0.74472220  0.75845794  0.00000000  1
  C  C16  1  0.25137858  0.24124109  0.50000000  1
  C  C17  1  0.26073617  0.99923418  0.00000000  1
  C  C18  1  0.00134659  0.24765469  0.00000000  1
  C  C19  1  0.00189720  0.99876257  0.50000000  1
  C  C20  1  0.25200478  0.76041503  0.50000000  1
  C  C21  1  0.25086076  0.50052231  0.00000000  1
  C  C22  1  0.99735864  0.75223403  0.00000000  1
  C  C23  1  0.99889008  0.50168877  0.50000000  1
  C  C24  1  0.74812426  0.24713904  0.50000000  1
  C  C25  1  0.74362887  0.98874964  0.00000000  1
  C  C26  1  0.49950244  0.24171862  0.00000000  1
  C  C27  1  0.49098374  0.99891115  0.50000000  1
  C  C28  1  0.74761819  0.75237228  0.50000000  1
  C  C29  1  0.74925229  0.50470412  0.00000000  1
  C  C30  1  0.50710551  0.76046466  0.00000000  1
  C  C31  1  0.50043970  0.50204306  0.50000000  1
