# generated using pymatgen
data_Hf3VC4
_symmetry_space_group_name_H-M   'P 1'
_cell_length_a   9.08115408
_cell_length_b   9.08115408
_cell_length_c   4.55738307
_cell_angle_alpha   90.00000000
_cell_angle_beta   90.00000000
_cell_angle_gamma   90.03697455
_symmetry_Int_Tables_number   1
_chemical_formula_structural   Hf3VC4
_chemical_formula_sum   'Hf12 V4 C16'
_cell_volume   375.83526945
_cell_formula_units_Z   4
loop_
 _symmetry_equiv_pos_site_id
 _symmetry_equiv_pos_as_xyz
  1  'x, y, z'
loop_
 _atom_site_type_symbol
 _atom_site_label
 _atom_site_symmetry_multiplicity
 _atom_site_fract_x
 _atom_site_fract_y
 _atom_site_fract_z
 _atom_site_occupancy
  V  V0  1  0.00722742  0.99277258  0.00000000  1
  V  V1  1  0.25382656  0.51127223  0.50000000  1
  V  V2  1  0.25374849  0.74625151  0.00000000  1
  V  V3  1  0.48872777  0.74617344  0.50000000  1
  Hf  Hf4  1  0.00254776  0.24931472  0.50000000  1
  Hf  Hf5  1  0.24899404  0.99467141  0.50000000  1
  Hf  Hf6  1  0.24896648  0.25250981  0.00000000  1
  Hf  Hf7  1  0.00553087  0.50341791  0.00000000  1
  Hf  Hf8  1  0.00532859  0.75100596  0.50000000  1
  Hf  Hf9  1  0.49658209  0.99446913  0.00000000  1
  Hf  Hf10  1  0.49681338  0.25111953  0.50000000  1
  Hf  Hf11  1  0.75068528  0.99745224  0.50000000  1
  Hf  Hf12  1  0.75187920  0.24812080  0.00000000  1
  Hf  Hf13  1  0.49569466  0.50430534  0.00000000  1
  Hf  Hf14  1  0.74888047  0.50318662  0.50000000  1
  Hf  Hf15  1  0.74749019  0.75103352  0.00000000  1
  C  C16  1  0.24969967  0.25159926  0.50000000  1
  C  C17  1  0.24121240  0.99107318  0.00000000  1
  C  C18  1  0.00230462  0.24729625  0.00000000  1
  C  C19  1  0.00260899  0.99739101  0.50000000  1
  C  C20  1  0.25805948  0.74194052  0.50000000  1
  C  C21  1  0.25088191  0.51105481  0.00000000  1
  C  C22  1  0.00892682  0.75878760  0.00000000  1
  C  C23  1  0.00946641  0.50289719  0.50000000  1
  C  C24  1  0.75128596  0.24871404  0.50000000  1
  C  C25  1  0.75270375  0.99769538  0.00000000  1
  C  C26  1  0.49773806  0.25160396  0.00000000  1
  C  C27  1  0.49710281  0.99053359  0.50000000  1
  C  C28  1  0.74840074  0.75030033  0.50000000  1
  C  C29  1  0.74839604  0.50226194  0.00000000  1
  C  C30  1  0.48894519  0.74911809  0.00000000  1
  C  C31  1  0.48934388  0.51065612  0.50000000  1
