# generated using pymatgen
data_Hf7VC8
_symmetry_space_group_name_H-M   'P 1'
_cell_length_a   9.19937376
_cell_length_b   9.16587541
_cell_length_c   4.60985706
_cell_angle_alpha   90.00000000
_cell_angle_beta   90.00000000
_cell_angle_gamma   90.00000000
_symmetry_Int_Tables_number   1
_chemical_formula_structural   Hf7VC8
_chemical_formula_sum   'Hf14 V2 C16'
_cell_volume   388.70459357
_cell_formula_units_Z   2
loop_
 _symmetry_equiv_pos_site_id
 _symmetry_equiv_pos_as_xyz
  1  'x, y, z'
loop_
 _atom_site_type_symbol
 _atom_site_label
 _atom_site_symmetry_multiplicity
 _atom_site_fract_x
 _atom_site_fract_y
 _atom_site_fract_z
 _atom_site_occupancy
  Hf  Hf0  1  0.00030570  -0.00000000  0.00000000  1
  Hf  Hf1  1  0.00184694  0.25459423  0.50000000  1
  Hf  Hf2  1  0.24969430  -0.00000000  0.50000000  1
  Hf  Hf3  1  0.24815306  0.25459423  0.00000000  1
  Hf  Hf4  1  0.00184694  0.74540577  0.50000000  1
  Hf  Hf5  1  0.24815306  0.74540577  -0.00000000  1
  Hf  Hf6  1  0.50006596  -0.00000000  0.00000000  1
  Hf  Hf7  1  0.49801221  0.25309066  0.50000000  1
  Hf  Hf8  1  0.74993404  -0.00000000  0.50000000  1
  Hf  Hf9  1  0.75198779  0.25309066  0.00000000  1
  Hf  Hf10  1  0.49677734  0.50000000  0.00000000  1
  Hf  Hf11  1  0.49801221  0.74690934  0.50000000  1
  Hf  Hf12  1  0.75322266  0.50000000  0.50000000  1
  Hf  Hf13  1  0.75198779  0.74690934  0.00000000  1
  C  C14  1  0.24855480  0.25930274  0.50000000  1
  C  C15  1  0.24916257  -0.00000000  0.00000000  1
  C  C16  1  0.00144520  0.25930274  -0.00000000  1
  C  C17  1  0.00083743  -0.00000000  0.50000000  1
  C  C18  1  0.24855480  0.74069726  0.50000000  1
  C  C19  1  0.23920306  0.50000000  0.00000000  1
  C  C20  1  0.00144520  0.74069726  0.00000000  1
  C  C21  1  0.01079694  0.50000000  0.50000000  1
  C  C22  1  0.75195204  0.25206523  0.50000000  1
  C  C23  1  0.75047106  -0.00000000  0.00000000  1
  C  C24  1  0.49804796  0.25206523  0.00000000  1
  C  C25  1  0.49952894  -0.00000000  0.50000000  1
  C  C26  1  0.75195204  0.74793477  0.50000000  1
  C  C27  1  0.75414322  0.50000000  0.00000000  1
  C  C28  1  0.49804796  0.74793477  0.00000000  1
  C  C29  1  0.49585678  0.50000000  0.50000000  1
  V  V30  1  0.00873877  0.50000000  0.00000000  1
  V  V31  1  0.24126123  0.50000000  0.50000000  1
