# generated using pymatgen
data_Hf11Nb5C16
_symmetry_space_group_name_H-M   'P 1'
_cell_length_a   9.18720315
_cell_length_b   9.18750741
_cell_length_c   4.59038323
_cell_angle_alpha   90.00000000
_cell_angle_beta   90.00000000
_cell_angle_gamma   89.95495373
_symmetry_Int_Tables_number   1
_chemical_formula_structural   Hf11Nb5C16
_chemical_formula_sum   'Hf11 Nb5 C16'
_cell_volume   387.46263903
_cell_formula_units_Z   1
loop_
 _symmetry_equiv_pos_site_id
 _symmetry_equiv_pos_as_xyz
  1  'x, y, z'
loop_
 _atom_site_type_symbol
 _atom_site_label
 _atom_site_symmetry_multiplicity
 _atom_site_fract_x
 _atom_site_fract_y
 _atom_site_fract_z
 _atom_site_occupancy
  Hf  Hf0  1  0.00013134  0.99915230  0.00000000  1
  Hf  Hf1  1  0.00020162  0.25125026  0.50000000  1
  Hf  Hf2  1  0.25000000  -0.00000000  0.50000000  1
  Hf  Hf3  1  0.25047851  0.25151905  0.00000000  1
  Hf  Hf4  1  0.24952149  0.74848095  0.00000000  1
  Hf  Hf5  1  0.49986866  0.00084770  0.00000000  1
  Hf  Hf6  1  0.75000000  -0.00000000  0.50000000  1
  Hf  Hf7  1  0.74907158  0.25078014  0.00000000  1
  Hf  Hf8  1  0.49979838  0.74874974  0.50000000  1
  Hf  Hf9  1  0.75000000  0.50000000  0.50000000  1
  Hf  Hf10  1  0.75092842  0.74921986  0.00000000  1
  C  C11  1  0.25293732  0.25458373  0.50000000  1
  C  C12  1  0.25000000  -0.00000000  0.00000000  1
  C  C13  1  0.00093700  0.25449043  0.00000000  1
  C  C14  1  0.00031080  0.99702704  0.50000000  1
  C  C15  1  0.24706268  0.74541627  0.50000000  1
  C  C16  1  0.25000000  0.50000000  0.00000000  1
  C  C17  1  0.00083130  0.74636981  0.00000000  1
  C  C18  1  0.00260053  0.50189239  0.50000000  1
  C  C19  1  0.74674725  0.25161340  0.50000000  1
  C  C20  1  0.75000000  -0.00000000  0.00000000  1
  C  C21  1  0.49916870  0.25363019  0.00000000  1
  C  C22  1  0.49968920  0.00297296  0.50000000  1
  C  C23  1  0.75325275  0.74838660  0.50000000  1
  C  C24  1  0.75000000  0.50000000  0.00000000  1
  C  C25  1  0.49906300  0.74550957  0.00000000  1
  C  C26  1  0.49739947  0.49810761  0.50000000  1
  Nb  Nb27  1  0.00054264  0.50010004  0.00000000  1
  Nb  Nb28  1  0.00060914  0.74893694  0.50000000  1
  Nb  Nb29  1  0.25000000  0.50000000  0.50000000  1
  Nb  Nb30  1  0.49939086  0.25106306  0.50000000  1
  Nb  Nb31  1  0.49945736  0.49989996  0.00000000  1
