# generated using pymatgen
data_Hf9V7C16
_symmetry_space_group_name_H-M   'P 1'
_cell_length_a   8.92355075
_cell_length_b   8.93461082
_cell_length_c   4.47187141
_cell_angle_alpha   90.00000000
_cell_angle_beta   90.00000000
_cell_angle_gamma   90.02581674
_symmetry_Int_Tables_number   1
_chemical_formula_structural   Hf9V7C16
_chemical_formula_sum   'Hf9 V7 C16'
_cell_volume   356.53535360
_cell_formula_units_Z   1
loop_
 _symmetry_equiv_pos_site_id
 _symmetry_equiv_pos_as_xyz
  1  'x, y, z'
loop_
 _atom_site_type_symbol
 _atom_site_label
 _atom_site_symmetry_multiplicity
 _atom_site_fract_x
 _atom_site_fract_y
 _atom_site_fract_z
 _atom_site_occupancy
  Hf  Hf0  1  0.99745291  0.00313022  0.00000000  1
  Hf  Hf1  1  0.24751412  0.99854118  0.50000000  1
  Hf  Hf2  1  0.24383961  0.25743813  0.00000000  1
  Hf  Hf3  1  0.99875185  0.74307275  0.50000000  1
  Hf  Hf4  1  0.50195928  0.99838961  0.00000000  1
  Hf  Hf5  1  0.50564104  0.25523907  0.50000000  1
  Hf  Hf6  1  0.75282902  0.00350384  0.50000000  1
  Hf  Hf7  1  0.50316717  0.50040256  0.00000000  1
  Hf  Hf8  1  0.50068360  0.74469912  0.50000000  1
  V  V9  1  0.99529375  0.26465949  0.50000000  1
  V  V10  1  0.99575275  0.49910447  0.00000000  1
  V  V11  1  0.23271079  0.49935630  0.50000000  1
  V  V12  1  0.24381776  0.73660147  0.00000000  1
  V  V13  1  0.76109557  0.26461219  0.00000000  1
  V  V14  1  0.76289111  0.49690863  0.50000000  1
  V  V15  1  0.75816799  0.73150128  0.00000000  1
  C  C16  1  0.23962030  0.26224240  0.50000000  1
  C  C17  1  0.24759191  0.99826412  0.00000000  1
  C  C18  1  0.99043239  0.26261528  0.00000000  1
  C  C19  1  0.99926244  0.00060625  0.50000000  1
  C  C20  1  0.24712262  0.73679758  0.50000000  1
  C  C21  1  0.23978243  0.50896134  0.00000000  1
  C  C22  1  0.99819406  0.73844615  0.00000000  1
  C  C23  1  0.99830745  0.49313533  0.50000000  1
  C  C24  1  0.76187562  0.26189852  0.50000000  1
  C  C25  1  0.75153090  0.00584484  0.00000000  1
  C  C26  1  0.50434805  0.25352521  0.00000000  1
  C  C27  1  0.50196155  0.99799448  0.50000000  1
  C  C28  1  0.75246726  0.73751842  0.50000000  1
  C  C29  1  0.76089038  0.49943801  0.00000000  1
  C  C30  1  0.49929263  0.74594983  0.00000000  1
  C  C31  1  0.50575168  0.49960195  0.50000000  1
