# generated using pymatgen
data_Hf5V3C8
_symmetry_space_group_name_H-M   'P 1'
_cell_length_a   8.91522245
_cell_length_b   9.10358063
_cell_length_c   4.49729403
_cell_angle_alpha   90.00000000
_cell_angle_beta   90.00000000
_cell_angle_gamma   90.00000000
_symmetry_Int_Tables_number   1
_chemical_formula_structural   Hf5V3C8
_chemical_formula_sum   'Hf10 V6 C16'
_cell_volume   365.00239110
_cell_formula_units_Z   2
loop_
 _symmetry_equiv_pos_site_id
 _symmetry_equiv_pos_as_xyz
  1  'x, y, z'
loop_
 _atom_site_type_symbol
 _atom_site_label
 _atom_site_symmetry_multiplicity
 _atom_site_fract_x
 _atom_site_fract_y
 _atom_site_fract_z
 _atom_site_occupancy
  Hf  Hf0  1  0.99754305  0.99901144  0.00000000  1
  Hf  Hf1  1  0.99754305  0.25098856  0.50000000  1
  Hf  Hf2  1  0.26141597  0.99874673  0.50000000  1
  Hf  Hf3  1  0.26141597  0.25125327  0.00000000  1
  Hf  Hf4  1  0.99346529  0.50107410  0.00000000  1
  Hf  Hf5  1  0.99346529  0.74892590  0.50000000  1
  Hf  Hf6  1  0.25348714  0.50284052  0.50000000  1
  Hf  Hf7  1  0.25348714  0.74715948  0.00000000  1
  Hf  Hf8  1  0.74031463  0.99367069  0.50000000  1
  Hf  Hf9  1  0.74031463  0.25632931  0.00000000  1
  C  C10  1  0.26533750  0.25228977  0.50000000  1
  C  C11  1  0.26533750  0.99771023  0.00000000  1
  C  C12  1  0.99748124  0.25080732  0.00000000  1
  C  C13  1  0.99748124  0.99919268  0.50000000  1
  C  C14  1  0.25774318  0.74817889  0.50000000  1
  C  C15  1  0.25774318  0.50182111  0.00000000  1
  C  C16  1  0.99086208  0.74930982  0.00000000  1
  C  C17  1  0.99086208  0.50069018  0.50000000  1
  C  C18  1  0.73401042  0.25726177  0.50000000  1
  C  C19  1  0.73401042  0.99273823  0.00000000  1
  C  C20  1  0.50210055  0.27513791  0.00000000  1
  C  C21  1  0.50210055  0.97486209  0.50000000  1
  C  C22  1  0.73930085  0.73978164  0.50000000  1
  C  C23  1  0.73930085  0.51021836  0.00000000  1
  C  C24  1  0.50984715  0.74544690  0.00000000  1
  C  C25  1  0.50984715  0.50455310  0.50000000  1
  V  V26  1  0.50613554  0.96376789  0.00000000  1
  V  V27  1  0.50613554  0.28623211  0.50000000  1
  V  V28  1  0.50628019  0.51249642  0.00000000  1
  V  V29  1  0.50628019  0.73750358  0.50000000  1
  V  V30  1  0.74467524  0.51002136  0.50000000  1
  V  V31  1  0.74467524  0.73997864  0.00000000  1
