# generated using pymatgen
data_HfVC2
_symmetry_space_group_name_H-M   'P 1'
_cell_length_a   8.83886554
_cell_length_b   8.82188911
_cell_length_c   4.44622328
_cell_angle_alpha   90.00000000
_cell_angle_beta   90.00000000
_cell_angle_gamma   90.18625065
_symmetry_Int_Tables_number   1
_chemical_formula_structural   HfVC2
_chemical_formula_sum   'Hf8 V8 C16'
_cell_volume   346.69461450
_cell_formula_units_Z   8
loop_
 _symmetry_equiv_pos_site_id
 _symmetry_equiv_pos_as_xyz
  1  'x, y, z'
loop_
 _atom_site_type_symbol
 _atom_site_label
 _atom_site_symmetry_multiplicity
 _atom_site_fract_x
 _atom_site_fract_y
 _atom_site_fract_z
 _atom_site_occupancy
  Hf  Hf0  1  0.99660646  0.99533063  0.00000000  1
  Hf  Hf1  1  0.99749064  0.25279538  0.50000000  1
  Hf  Hf2  1  0.25299118  0.99320531  0.50000000  1
  Hf  Hf3  1  0.24872635  0.25417172  0.00000000  1
  Hf  Hf4  1  0.50318363  0.24624566  0.50000000  1
  Hf  Hf5  1  0.49596140  0.50609719  0.00000000  1
  Hf  Hf6  1  0.75463288  0.50304900  0.50000000  1
  Hf  Hf7  1  0.74890124  0.75321203  0.00000000  1
  C  C8  1  0.25008930  0.25559973  0.50000000  1
  C  C9  1  0.25684273  0.99047392  0.00000000  1
  C  C10  1  0.99080610  0.25643667  0.00000000  1
  C  C11  1  0.99222150  0.99004643  0.50000000  1
  C  C12  1  0.25068646  0.74140694  0.50000000  1
  C  C13  1  0.24210242  0.51137851  0.00000000  1
  C  C14  1  0.00906719  0.74062425  0.00000000  1
  C  C15  1  0.00987166  0.50969903  0.50000000  1
  C  C16  1  0.74974981  0.24240766  0.50000000  1
  C  C17  1  0.74059371  0.00541666  0.00000000  1
  C  C18  1  0.50814638  0.24397544  0.00000000  1
  C  C19  1  0.50774171  0.99004476  0.50000000  1
  C  C20  1  0.74897288  0.76026420  0.50000000  1
  C  C21  1  0.75678932  0.49691798  0.00000000  1
  C  C22  1  0.49149244  0.75902079  0.00000000  1
  C  C23  1  0.49349852  0.50887656  0.50000000  1
  V  V24  1  0.00714414  0.50852989  0.00000000  1
  V  V25  1  0.01668555  0.74307846  0.50000000  1
  V  V26  1  0.24806784  0.50926942  0.50000000  1
  V  V27  1  0.24972632  0.74805816  0.00000000  1
  V  V28  1  0.50093985  0.99486938  0.00000000  1
  V  V29  1  0.74440760  0.99311947  0.50000000  1
  V  V30  1  0.74760729  0.24624382  0.00000000  1
  V  V31  1  0.48825548  0.75013498  0.50000000  1
