# generated using pymatgen
data_HfTiB4
_symmetry_space_group_name_H-M   'P 1'
_cell_length_a   6.18439171
_cell_length_b   6.18183032
_cell_length_c   6.74949506
_cell_angle_alpha   90.00000000
_cell_angle_beta   90.00000000
_cell_angle_gamma   119.98630026
_symmetry_Int_Tables_number   1
_chemical_formula_structural   HfTiB4
_chemical_formula_sum   'Hf4 Ti4 B16'
_cell_volume   223.49917371
_cell_formula_units_Z   4
loop_
 _symmetry_equiv_pos_site_id
 _symmetry_equiv_pos_as_xyz
  1  'x, y, z'
loop_
 _atom_site_type_symbol
 _atom_site_label
 _atom_site_symmetry_multiplicity
 _atom_site_fract_x
 _atom_site_fract_y
 _atom_site_fract_z
 _atom_site_occupancy
  Ti  Ti0  1  0.00000000  0.00000000  0.00000000  1
  Ti  Ti1  1  0.00000000  0.50000000  0.50000000  1
  Ti  Ti2  1  0.50000000  0.50000000  0.00000000  1
  Ti  Ti3  1  0.50000000  0.50000000  0.50000000  1
  B  B4  1  0.16900093  0.33450046  0.25000000  1
  B  B5  1  0.33357932  0.17039811  0.24838046  1
  B  B6  1  0.16900093  0.33450046  0.75000000  1
  B  B7  1  0.33357932  0.17039811  0.75161954  1
  B  B8  1  0.16425359  0.83212679  0.25000000  1
  B  B9  1  0.33357932  0.66318122  0.25161954  1
  B  B10  1  0.16425359  0.83212679  0.75000000  1
  B  B11  1  0.33357932  0.66318122  0.74838046  1
  B  B12  1  0.66642068  0.33681878  0.25161954  1
  B  B13  1  0.83574641  0.16787321  0.25000000  1
  B  B14  1  0.66642068  0.33681878  0.74838046  1
  B  B15  1  0.83574641  0.16787321  0.75000000  1
  B  B16  1  0.66642068  0.82960189  0.24838046  1
  B  B17  1  0.83099907  0.66549954  0.25000000  1
  B  B18  1  0.66642068  0.82960189  0.75161954  1
  B  B19  1  0.83099907  0.66549954  0.75000000  1
  Hf  Hf20  1  0.00000000  0.00000000  0.50000000  1
  Hf  Hf21  1  0.00000000  0.50000000  0.00000000  1
  Hf  Hf22  1  0.50000000  0.00000000  0.00000000  1
  Hf  Hf23  1  0.50000000  0.00000000  0.50000000  1
