# generated using pymatgen
data_HfB4Mo
_symmetry_space_group_name_H-M   'P 1'
_cell_length_a   6.18467725
_cell_length_b   6.18467725
_cell_length_c   6.77059849
_cell_angle_alpha   90.00000000
_cell_angle_beta   90.00000000
_cell_angle_gamma   119.97025227
_symmetry_Int_Tables_number   1
_chemical_formula_structural   HfB4Mo
_chemical_formula_sum   'Hf4 B16 Mo4'
_cell_volume   224.34783264
_cell_formula_units_Z   4
loop_
 _symmetry_equiv_pos_site_id
 _symmetry_equiv_pos_as_xyz
  1  'x, y, z'
loop_
 _atom_site_type_symbol
 _atom_site_label
 _atom_site_symmetry_multiplicity
 _atom_site_fract_x
 _atom_site_fract_y
 _atom_site_fract_z
 _atom_site_occupancy
  Hf  Hf0  1  0.00000000  0.00000000  0.00000000  1
  Hf  Hf1  1  0.00000000  0.50000000  0.00000000  1
  Hf  Hf2  1  0.00000000  0.50000000  0.50000000  1
  Hf  Hf3  1  0.50000000  0.50000000  0.00000000  1
  B  B4  1  0.16760769  0.33239231  0.25305433  1
  B  B5  1  0.33434455  0.16565545  0.25357635  1
  B  B6  1  0.16760769  0.33239231  0.74694567  1
  B  B7  1  0.33434455  0.16565545  0.74642365  1
  B  B8  1  0.16974940  0.83581694  0.25353661  1
  B  B9  1  0.33581694  0.66974940  0.25353661  1
  B  B10  1  0.16974940  0.83581694  0.74646339  1
  B  B11  1  0.33581694  0.66974940  0.74646339  1
  B  B12  1  0.66418306  0.33025060  0.25353661  1
  B  B13  1  0.83025060  0.16418306  0.25353661  1
  B  B14  1  0.66418306  0.33025060  0.74646339  1
  B  B15  1  0.83025060  0.16418306  0.74646339  1
  B  B16  1  0.66565545  0.83434455  0.25357635  1
  B  B17  1  0.83239231  0.66760769  0.25305433  1
  B  B18  1  0.66565545  0.83434455  0.74642365  1
  B  B19  1  0.83239231  0.66760769  0.74694567  1
  Mo  Mo20  1  0.00000000  0.00000000  0.50000000  1
  Mo  Mo21  1  0.50000000  0.00000000  0.00000000  1
  Mo  Mo22  1  0.50000000  0.00000000  0.50000000  1
  Mo  Mo23  1  0.50000000  0.50000000  0.50000000  1
