# generated using pymatgen
data_HfNbB4
_symmetry_space_group_name_H-M   'P 1'
_cell_length_a   6.24903901
_cell_length_b   6.24596709
_cell_length_c   6.80929336
_cell_angle_alpha   90.00000000
_cell_angle_beta   90.00000000
_cell_angle_gamma   119.98373999
_symmetry_Int_Tables_number   1
_chemical_formula_structural   HfNbB4
_chemical_formula_sum   'Hf4 Nb4 B16'
_cell_volume   230.20605299
_cell_formula_units_Z   4
loop_
 _symmetry_equiv_pos_site_id
 _symmetry_equiv_pos_as_xyz
  1  'x, y, z'
loop_
 _atom_site_type_symbol
 _atom_site_label
 _atom_site_symmetry_multiplicity
 _atom_site_fract_x
 _atom_site_fract_y
 _atom_site_fract_z
 _atom_site_occupancy
  Nb  Nb0  1  0.00000000  0.00000000  0.00000000  1
  Nb  Nb1  1  0.00000000  0.00000000  0.50000000  1
  Nb  Nb2  1  0.50000000  0.00000000  0.00000000  1
  Nb  Nb3  1  0.50000000  0.50000000  0.50000000  1
  B  B4  1  0.16660061  0.33232836  0.25012435  1
  B  B5  1  0.33250513  0.16625257  0.25000000  1
  B  B6  1  0.16660061  0.33232836  0.74987565  1
  B  B7  1  0.33250513  0.16625257  0.75000000  1
  B  B8  1  0.16660061  0.83427224  0.24987565  1
  B  B9  1  0.33383199  0.66691600  0.25000000  1
  B  B10  1  0.16660061  0.83427224  0.75012435  1
  B  B11  1  0.33383199  0.66691600  0.75000000  1
  B  B12  1  0.66616801  0.33308400  0.25000000  1
  B  B13  1  0.83339939  0.16572776  0.24987565  1
  B  B14  1  0.66616801  0.33308400  0.75000000  1
  B  B15  1  0.83339939  0.16572776  0.75012435  1
  B  B16  1  0.66749487  0.83374743  0.25000000  1
  B  B17  1  0.83339939  0.66767164  0.25012435  1
  B  B18  1  0.66749487  0.83374743  0.75000000  1
  B  B19  1  0.83339939  0.66767164  0.74987565  1
  Hf  Hf20  1  0.00000000  0.50000000  0.00000000  1
  Hf  Hf21  1  0.00000000  0.50000000  0.50000000  1
  Hf  Hf22  1  0.50000000  0.00000000  0.50000000  1
  Hf  Hf23  1  0.50000000  0.50000000  0.00000000  1
