# generated using pymatgen
data_HfCrB4
_symmetry_space_group_name_H-M   'P 1'
_cell_length_a   6.10708449
_cell_length_b   6.07836256
_cell_length_c   6.59963202
_cell_angle_alpha   90.00000000
_cell_angle_beta   90.00000000
_cell_angle_gamma   119.84454592
_symmetry_Int_Tables_number   1
_chemical_formula_structural   HfCrB4
_chemical_formula_sum   'Hf4 Cr4 B16'
_cell_volume   212.49516732
_cell_formula_units_Z   4
loop_
 _symmetry_equiv_pos_site_id
 _symmetry_equiv_pos_as_xyz
  1  'x, y, z'
loop_
 _atom_site_type_symbol
 _atom_site_label
 _atom_site_symmetry_multiplicity
 _atom_site_fract_x
 _atom_site_fract_y
 _atom_site_fract_z
 _atom_site_occupancy
  Cr  Cr0  1  0.00000000  0.00000000  0.00000000  1
  Cr  Cr1  1  0.00000000  0.50000000  0.50000000  1
  Cr  Cr2  1  0.50000000  0.00000000  0.00000000  1
  Cr  Cr3  1  0.50000000  0.00000000  0.50000000  1
  B  B4  1  0.16319318  0.33159658  0.25000000  1
  B  B5  1  0.33462065  0.16083899  0.24819791  1
  B  B6  1  0.16319318  0.33159658  0.75000000  1
  B  B7  1  0.33462065  0.16083899  0.75180209  1
  B  B8  1  0.17106069  0.83553034  0.25000000  1
  B  B9  1  0.33462065  0.67378167  0.25180209  1
  B  B10  1  0.17106069  0.83553034  0.75000000  1
  B  B11  1  0.33462065  0.67378167  0.74819791  1
  B  B12  1  0.66537935  0.32621833  0.25180209  1
  B  B13  1  0.82893931  0.16446966  0.25000000  1
  B  B14  1  0.66537935  0.32621833  0.74819791  1
  B  B15  1  0.82893931  0.16446966  0.75000000  1
  B  B16  1  0.66537935  0.83916101  0.24819791  1
  B  B17  1  0.83680682  0.66840342  0.25000000  1
  B  B18  1  0.66537935  0.83916101  0.75180209  1
  B  B19  1  0.83680682  0.66840342  0.75000000  1
  Hf  Hf20  1  0.00000000  0.00000000  0.50000000  1
  Hf  Hf21  1  0.00000000  0.50000000  0.00000000  1
  Hf  Hf22  1  0.50000000  0.50000000  0.00000000  1
  Hf  Hf23  1  0.50000000  0.50000000  0.50000000  1
