# generated using pymatgen
data_HfVB4
_symmetry_space_group_name_H-M   'P 1'
_cell_length_a   6.14212502
_cell_length_b   6.14474129
_cell_length_c   6.58465285
_cell_angle_alpha   90.00000000
_cell_angle_beta   90.00000000
_cell_angle_gamma   120.01409150
_symmetry_Int_Tables_number   1
_chemical_formula_structural   HfVB4
_chemical_formula_sum   'Hf4 V4 B16'
_cell_volume   215.19099058
_cell_formula_units_Z   4
loop_
 _symmetry_equiv_pos_site_id
 _symmetry_equiv_pos_as_xyz
  1  'x, y, z'
loop_
 _atom_site_type_symbol
 _atom_site_label
 _atom_site_symmetry_multiplicity
 _atom_site_fract_x
 _atom_site_fract_y
 _atom_site_fract_z
 _atom_site_occupancy
  V  V0  1  0.00000000  0.00000000  0.00000000  1
  V  V1  1  0.00000000  0.00000000  0.50000000  1
  V  V2  1  0.50000000  0.00000000  0.00000000  1
  V  V3  1  0.50000000  0.50000000  0.00000000  1
  B  B4  1  0.16662776  0.32821856  0.24185966  1
  B  B5  1  0.33074973  0.16537487  0.23833831  1
  B  B6  1  0.16662776  0.32821856  0.75814034  1
  B  B7  1  0.33074973  0.16537487  0.76166169  1
  B  B8  1  0.16662776  0.83840919  0.24185966  1
  B  B9  1  0.33757008  0.66878504  0.23972228  1
  B  B10  1  0.16662776  0.83840919  0.75814034  1
  B  B11  1  0.33757008  0.66878504  0.76027772  1
  B  B12  1  0.66242992  0.33121496  0.23972228  1
  B  B13  1  0.83337224  0.16159081  0.24185966  1
  B  B14  1  0.66242992  0.33121496  0.76027772  1
  B  B15  1  0.83337224  0.16159081  0.75814034  1
  B  B16  1  0.66925027  0.83462513  0.23833831  1
  B  B17  1  0.83337224  0.67178144  0.24185966  1
  B  B18  1  0.66925027  0.83462513  0.76166169  1
  B  B19  1  0.83337224  0.67178144  0.75814034  1
  Hf  Hf20  1  0.00000000  0.50000000  0.00000000  1
  Hf  Hf21  1  0.00000000  0.50000000  0.50000000  1
  Hf  Hf22  1  0.50000000  0.00000000  0.50000000  1
  Hf  Hf23  1  0.50000000  0.50000000  0.50000000  1
