# generated using pymatgen
data_HfTa3B8
_symmetry_space_group_name_H-M   'P 1'
_cell_length_a   6.21573364
_cell_length_b   6.22007182
_cell_length_c   6.72794821
_cell_angle_alpha   90.00000000
_cell_angle_beta   90.00000000
_cell_angle_gamma   120.02309016
_symmetry_Int_Tables_number   1
_chemical_formula_structural   HfTa3B8
_chemical_formula_sum   'Hf2 Ta6 B16'
_cell_volume   225.21637876
_cell_formula_units_Z   2
loop_
 _symmetry_equiv_pos_site_id
 _symmetry_equiv_pos_as_xyz
  1  'x, y, z'
loop_
 _atom_site_type_symbol
 _atom_site_label
 _atom_site_symmetry_multiplicity
 _atom_site_fract_x
 _atom_site_fract_y
 _atom_site_fract_z
 _atom_site_occupancy
  Hf  Hf0  1  0.00000000  0.00000000  0.00000000  1
  Hf  Hf1  1  0.00000000  0.50000000  0.00000000  1
  B  B2  1  0.16721636  0.33360818  0.25267642  1
  B  B3  1  0.33418902  0.16709452  0.25245983  1
  B  B4  1  0.16721636  0.33360818  0.74732358  1
  B  B5  1  0.33418902  0.16709452  0.74754017  1
  B  B6  1  0.16721636  0.83360818  0.25267642  1
  B  B7  1  0.33418902  0.66709452  0.25245983  1
  B  B8  1  0.16721636  0.83360818  0.74732358  1
  B  B9  1  0.33418902  0.66709452  0.74754017  1
  B  B10  1  0.66581098  0.33290548  0.25245983  1
  B  B11  1  0.83278364  0.16639182  0.25267642  1
  B  B12  1  0.66581098  0.33290548  0.74754017  1
  B  B13  1  0.83278364  0.16639182  0.74732358  1
  B  B14  1  0.66581098  0.83290548  0.25245983  1
  B  B15  1  0.83278364  0.66639182  0.25267642  1
  B  B16  1  0.66581098  0.83290548  0.74754017  1
  B  B17  1  0.83278364  0.66639182  0.74732358  1
  Ta  Ta18  1  0.00000000  0.00000000  0.50000000  1
  Ta  Ta19  1  0.00000000  0.50000000  0.50000000  1
  Ta  Ta20  1  0.50000000  0.00000000  0.00000000  1
  Ta  Ta21  1  0.50000000  0.00000000  0.50000000  1
  Ta  Ta22  1  0.50000000  0.50000000  0.00000000  1
  Ta  Ta23  1  0.50000000  0.50000000  0.50000000  1
