# generated using pymatgen
data_HfSi3B8
_symmetry_space_group_name_H-M   'P 1'
_cell_length_a   6.02676117
_cell_length_b   5.97958582
_cell_length_c   7.28802812
_cell_angle_alpha   90.00000000
_cell_angle_beta   90.00000000
_cell_angle_gamma   120.26132429
_symmetry_Int_Tables_number   1
_chemical_formula_structural   HfSi3B8
_chemical_formula_sum   'Hf2 Si6 B16'
_cell_volume   226.85382450
_cell_formula_units_Z   2
loop_
 _symmetry_equiv_pos_site_id
 _symmetry_equiv_pos_as_xyz
  1  'x, y, z'
loop_
 _atom_site_type_symbol
 _atom_site_label
 _atom_site_symmetry_multiplicity
 _atom_site_fract_x
 _atom_site_fract_y
 _atom_site_fract_z
 _atom_site_occupancy
  Si  Si0  1  0.00000000  0.00000000  0.00000000  1
  Si  Si1  1  0.00000000  0.50000000  0.00000000  1
  Si  Si2  1  0.00000000  0.50000000  0.50000000  1
  Si  Si3  1  0.50000000  0.00000000  0.50000000  1
  Si  Si4  1  0.50000000  0.50000000  0.00000000  1
  Si  Si5  1  0.50000000  0.50000000  0.50000000  1
  B  B6  1  0.16670887  0.33341772  0.24474987  1
  B  B7  1  0.33394765  0.16789531  0.25000000  1
  B  B8  1  0.16670887  0.33341772  0.75525013  1
  B  B9  1  0.33394765  0.16789531  0.75000000  1
  B  B10  1  0.16605235  0.83210469  0.25000000  1
  B  B11  1  0.33329113  0.66658228  0.25525013  1
  B  B12  1  0.16605235  0.83210469  0.75000000  1
  B  B13  1  0.33329113  0.66658228  0.74474987  1
  B  B14  1  0.66670887  0.33341772  0.25525013  1
  B  B15  1  0.83394765  0.16789531  0.25000000  1
  B  B16  1  0.66670887  0.33341772  0.74474987  1
  B  B17  1  0.83394765  0.16789531  0.75000000  1
  B  B18  1  0.66605235  0.83210469  0.25000000  1
  B  B19  1  0.83329113  0.66658228  0.24474987  1
  B  B20  1  0.66605235  0.83210469  0.75000000  1
  B  B21  1  0.83329113  0.66658228  0.75525013  1
  Hf  Hf22  1  0.00000000  0.00000000  0.50000000  1
  Hf  Hf23  1  0.50000000  0.00000000  0.00000000  1
