# generated using pymatgen
data_HfAl3B8
_symmetry_space_group_name_H-M   'P 1'
_cell_length_a   6.03528901
_cell_length_b   6.03528900
_cell_length_c   6.81096817
_cell_angle_alpha   90.00000000
_cell_angle_beta   90.00000000
_cell_angle_gamma   119.44364073
_symmetry_Int_Tables_number   1
_chemical_formula_structural   HfAl3B8
_chemical_formula_sum   'Hf2 Al6 B16'
_cell_volume   216.04448686
_cell_formula_units_Z   2
loop_
 _symmetry_equiv_pos_site_id
 _symmetry_equiv_pos_as_xyz
  1  'x, y, z'
loop_
 _atom_site_type_symbol
 _atom_site_label
 _atom_site_symmetry_multiplicity
 _atom_site_fract_x
 _atom_site_fract_y
 _atom_site_fract_z
 _atom_site_occupancy
  Hf  Hf0  1  0.00000000  0.00000000  0.00000000  1
  Hf  Hf1  1  0.50000000  0.50000000  0.00000000  1
  B  B2  1  0.16619326  0.33380674  0.26153913  1
  B  B3  1  0.33380674  0.16619326  0.26153913  1
  B  B4  1  0.16619326  0.33380674  0.73846087  1
  B  B5  1  0.33380674  0.16619326  0.73846087  1
  B  B6  1  0.16680820  0.83319180  0.26247417  1
  B  B7  1  0.33319180  0.66680820  0.26247417  1
  B  B8  1  0.16680820  0.83319180  0.73752583  1
  B  B9  1  0.33319180  0.66680820  0.73752583  1
  B  B10  1  0.66680820  0.33319180  0.26247417  1
  B  B11  1  0.83319180  0.16680820  0.26247417  1
  B  B12  1  0.66680820  0.33319180  0.73752583  1
  B  B13  1  0.83319180  0.16680820  0.73752583  1
  B  B14  1  0.66619326  0.83380674  0.26153913  1
  B  B15  1  0.83380674  0.66619326  0.26153913  1
  B  B16  1  0.66619326  0.83380674  0.73846087  1
  B  B17  1  0.83380674  0.66619326  0.73846087  1
  Al  Al18  1  0.00000000  0.00000000  0.50000000  1
  Al  Al19  1  0.00000000  0.50000000  0.00000000  1
  Al  Al20  1  0.00000000  0.50000000  0.50000000  1
  Al  Al21  1  0.50000000  0.00000000  0.00000000  1
  Al  Al22  1  0.50000000  0.00000000  0.50000000  1
  Al  Al23  1  0.50000000  0.50000000  0.50000000  1
