# generated using pymatgen
data_HfB8Mo3
_symmetry_space_group_name_H-M   'P 1'
_cell_length_a   6.13346187
_cell_length_b   6.12162228
_cell_length_c   6.69760184
_cell_angle_alpha   90.00000000
_cell_angle_beta   90.00000000
_cell_angle_gamma   120.06399884
_symmetry_Int_Tables_number   1
_chemical_formula_structural   HfB8Mo3
_chemical_formula_sum   'Hf2 B16 Mo6'
_cell_volume   217.64150504
_cell_formula_units_Z   2
loop_
 _symmetry_equiv_pos_site_id
 _symmetry_equiv_pos_as_xyz
  1  'x, y, z'
loop_
 _atom_site_type_symbol
 _atom_site_label
 _atom_site_symmetry_multiplicity
 _atom_site_fract_x
 _atom_site_fract_y
 _atom_site_fract_z
 _atom_site_occupancy
  Mo  Mo0  1  0.00000000  0.00000000  0.00000000  1
  Mo  Mo1  1  0.00000000  0.50000000  0.00000000  1
  Mo  Mo2  1  0.00000000  0.50000000  0.50000000  1
  Mo  Mo3  1  0.50000000  0.00000000  0.00000000  1
  Mo  Mo4  1  0.50000000  0.50000000  0.00000000  1
  Mo  Mo5  1  0.50000000  0.50000000  0.50000000  1
  B  B6  1  0.16775706  0.33551410  0.24643848  1
  B  B7  1  0.33418957  0.16837915  0.24691704  1
  B  B8  1  0.16775706  0.33551410  0.75356152  1
  B  B9  1  0.33418957  0.16837915  0.75308296  1
  B  B10  1  0.16581043  0.83162085  0.24691704  1
  B  B11  1  0.33224294  0.66448590  0.24643848  1
  B  B12  1  0.16581043  0.83162085  0.75308296  1
  B  B13  1  0.33224294  0.66448590  0.75356152  1
  B  B14  1  0.66775706  0.33551410  0.24643848  1
  B  B15  1  0.83418957  0.16837915  0.24691704  1
  B  B16  1  0.66775706  0.33551410  0.75356152  1
  B  B17  1  0.83418957  0.16837915  0.75308296  1
  B  B18  1  0.66581043  0.83162085  0.24691704  1
  B  B19  1  0.83224294  0.66448590  0.24643848  1
  B  B20  1  0.66581043  0.83162085  0.75308296  1
  B  B21  1  0.83224294  0.66448590  0.75356152  1
  Hf  Hf22  1  0.00000000  0.00000000  0.50000000  1
  Hf  Hf23  1  0.50000000  0.00000000  0.50000000  1
