# generated using pymatgen
data_HfZr3B8
_symmetry_space_group_name_H-M   'P 1'
_cell_length_a   6.32924020
_cell_length_b   6.32924019
_cell_length_c   7.05945409
_cell_angle_alpha   90.00000000
_cell_angle_beta   90.00000000
_cell_angle_gamma   119.99608734
_symmetry_Int_Tables_number   1
_chemical_formula_structural   HfZr3B8
_chemical_formula_sum   'Hf2 Zr6 B16'
_cell_volume   244.91874565
_cell_formula_units_Z   2
loop_
 _symmetry_equiv_pos_site_id
 _symmetry_equiv_pos_as_xyz
  1  'x, y, z'
loop_
 _atom_site_type_symbol
 _atom_site_label
 _atom_site_symmetry_multiplicity
 _atom_site_fract_x
 _atom_site_fract_y
 _atom_site_fract_z
 _atom_site_occupancy
  Zr  Zr0  1  0.00000000  0.00000000  0.00000000  1
  Zr  Zr1  1  0.00000000  0.00000000  0.50000000  1
  Zr  Zr2  1  0.00000000  0.50000000  0.50000000  1
  Zr  Zr3  1  0.50000000  0.00000000  0.50000000  1
  Zr  Zr4  1  0.50000000  0.50000000  0.00000000  1
  Zr  Zr5  1  0.50000000  0.50000000  0.50000000  1
  B  B6  1  0.16631105  0.33368895  0.24869069  1
  B  B7  1  0.33368895  0.16631105  0.24869069  1
  B  B8  1  0.16631105  0.33368895  0.75130931  1
  B  B9  1  0.33368895  0.16631105  0.75130931  1
  B  B10  1  0.16703257  0.83296743  0.24810853  1
  B  B11  1  0.33296743  0.66703257  0.24810853  1
  B  B12  1  0.16703257  0.83296743  0.75189147  1
  B  B13  1  0.33296743  0.66703257  0.75189147  1
  B  B14  1  0.66703257  0.33296743  0.24810853  1
  B  B15  1  0.83296743  0.16703257  0.24810853  1
  B  B16  1  0.66703257  0.33296743  0.75189147  1
  B  B17  1  0.83296743  0.16703257  0.75189147  1
  B  B18  1  0.66631105  0.83368895  0.24869069  1
  B  B19  1  0.83368895  0.66631105  0.24869069  1
  B  B20  1  0.66631105  0.83368895  0.75130931  1
  B  B21  1  0.83368895  0.66631105  0.75130931  1
  Hf  Hf22  1  0.00000000  0.50000000  0.00000000  1
  Hf  Hf23  1  0.50000000  0.00000000  0.00000000  1
