# generated using pymatgen
data_HfV3B8
_symmetry_space_group_name_H-M   'P 1'
_cell_length_a   6.06993686
_cell_length_b   6.06993686
_cell_length_c   6.33697097
_cell_angle_alpha   90.00000000
_cell_angle_beta   90.00000000
_cell_angle_gamma   120.00000000
_symmetry_Int_Tables_number   1
_chemical_formula_structural   HfV3B8
_chemical_formula_sum   'Hf2 V6 B16'
_cell_volume   202.19978820
_cell_formula_units_Z   2
loop_
 _symmetry_equiv_pos_site_id
 _symmetry_equiv_pos_as_xyz
  1  'x, y, z'
loop_
 _atom_site_type_symbol
 _atom_site_label
 _atom_site_symmetry_multiplicity
 _atom_site_fract_x
 _atom_site_fract_y
 _atom_site_fract_z
 _atom_site_occupancy
  V  V0  1  0.00000000  0.00000000  0.00000000  1
  V  V1  1  0.00000000  0.00000000  0.50000000  1
  V  V2  1  0.00000000  0.50000000  0.00000000  1
  V  V3  1  0.00000000  0.50000000  0.50000000  1
  V  V4  1  0.50000000  0.00000000  0.00000000  1
  V  V5  1  0.50000000  0.00000000  0.50000000  1
  B  B6  1  0.15972947  0.32986473  0.25000000  1
  B  B7  1  0.32986473  0.15972947  0.25000000  1
  B  B8  1  0.15972947  0.32986473  0.75000000  1
  B  B9  1  0.32986473  0.15972947  0.75000000  1
  B  B10  1  0.16666667  0.83333333  0.25000000  1
  B  B11  1  0.32986473  0.67013527  0.25000000  1
  B  B12  1  0.16666667  0.83333333  0.75000000  1
  B  B13  1  0.32986473  0.67013527  0.75000000  1
  B  B14  1  0.67013527  0.32986473  0.25000000  1
  B  B15  1  0.83333333  0.16666667  0.25000000  1
  B  B16  1  0.67013527  0.32986473  0.75000000  1
  B  B17  1  0.83333333  0.16666667  0.75000000  1
  B  B18  1  0.67013527  0.84027053  0.25000000  1
  B  B19  1  0.84027053  0.67013527  0.25000000  1
  B  B20  1  0.67013527  0.84027053  0.75000000  1
  B  B21  1  0.84027053  0.67013527  0.75000000  1
  Hf  Hf22  1  0.50000000  0.50000000  0.00000000  1
  Hf  Hf23  1  0.50000000  0.50000000  0.50000000  1
