# generated using pymatgen
data_HfCr3B8
_symmetry_space_group_name_H-M   'P 1'
_cell_length_a   6.00059907
_cell_length_b   6.00285824
_cell_length_c   6.32977140
_cell_angle_alpha   90.00000000
_cell_angle_beta   90.00000000
_cell_angle_gamma   119.98755118
_symmetry_Int_Tables_number   1
_chemical_formula_structural   HfCr3B8
_chemical_formula_sum   'Hf2 Cr6 B16'
_cell_volume   197.48122874
_cell_formula_units_Z   2
loop_
 _symmetry_equiv_pos_site_id
 _symmetry_equiv_pos_as_xyz
  1  'x, y, z'
loop_
 _atom_site_type_symbol
 _atom_site_label
 _atom_site_symmetry_multiplicity
 _atom_site_fract_x
 _atom_site_fract_y
 _atom_site_fract_z
 _atom_site_occupancy
  Cr  Cr0  1  0.00000000  0.00000000  0.00000000  1
  Cr  Cr1  1  0.00000000  0.00000000  0.50000000  1
  Cr  Cr2  1  0.00000000  0.50000000  0.50000000  1
  Cr  Cr3  1  0.50000000  0.00000000  0.00000000  1
  Cr  Cr4  1  0.50000000  0.00000000  0.50000000  1
  Cr  Cr5  1  0.50000000  0.50000000  0.00000000  1
  B  B6  1  0.16380386  0.32760772  0.25000000  1
  B  B7  1  0.33118851  0.16237703  0.24656428  1
  B  B8  1  0.16380386  0.32760772  0.75000000  1
  B  B9  1  0.33118851  0.16237703  0.75343572  1
  B  B10  1  0.16881149  0.83762297  0.25343572  1
  B  B11  1  0.33619614  0.67239228  0.25000000  1
  B  B12  1  0.16881149  0.83762297  0.74656428  1
  B  B13  1  0.33619614  0.67239228  0.75000000  1
  B  B14  1  0.66380386  0.32760772  0.25000000  1
  B  B15  1  0.83118851  0.16237703  0.25343572  1
  B  B16  1  0.66380386  0.32760772  0.75000000  1
  B  B17  1  0.83118851  0.16237703  0.74656428  1
  B  B18  1  0.66881149  0.83762297  0.24656428  1
  B  B19  1  0.83619614  0.67239228  0.25000000  1
  B  B20  1  0.66881149  0.83762297  0.75343572  1
  B  B21  1  0.83619614  0.67239228  0.75000000  1
  Hf  Hf22  1  0.00000000  0.50000000  0.00000000  1
  Hf  Hf23  1  0.50000000  0.50000000  0.50000000  1
