# generated using pymatgen
data_HfNb3B8
_symmetry_space_group_name_H-M   'P 1'
_cell_length_a   6.23540258
_cell_length_b   6.23540258
_cell_length_c   6.72420069
_cell_angle_alpha   90.00000000
_cell_angle_beta   90.00000000
_cell_angle_gamma   120.01534018
_symmetry_Int_Tables_number   1
_chemical_formula_structural   HfNb3B8
_chemical_formula_sum   'Hf2 Nb6 B16'
_cell_volume   226.37743883
_cell_formula_units_Z   2
loop_
 _symmetry_equiv_pos_site_id
 _symmetry_equiv_pos_as_xyz
  1  'x, y, z'
loop_
 _atom_site_type_symbol
 _atom_site_label
 _atom_site_symmetry_multiplicity
 _atom_site_fract_x
 _atom_site_fract_y
 _atom_site_fract_z
 _atom_site_occupancy
  Nb  Nb0  1  0.00000000  0.00000000  0.00000000  1
  Nb  Nb1  1  0.00000000  0.00000000  0.50000000  1
  Nb  Nb2  1  0.00000000  0.50000000  0.00000000  1
  Nb  Nb3  1  0.50000000  0.00000000  0.50000000  1
  Nb  Nb4  1  0.50000000  0.50000000  0.00000000  1
  Nb  Nb5  1  0.50000000  0.50000000  0.50000000  1
  B  B6  1  0.16691337  0.33308663  0.24944083  1
  B  B7  1  0.33308663  0.16691337  0.25055917  1
  B  B8  1  0.16691337  0.33308663  0.75055917  1
  B  B9  1  0.33308663  0.16691337  0.74944083  1
  B  B10  1  0.16624018  0.83375982  0.25000000  1
  B  B11  1  0.33375982  0.66624018  0.25000000  1
  B  B12  1  0.16624018  0.83375982  0.75000000  1
  B  B13  1  0.33375982  0.66624018  0.75000000  1
  B  B14  1  0.66624018  0.33375982  0.25000000  1
  B  B15  1  0.83375982  0.16624018  0.25000000  1
  B  B16  1  0.66624018  0.33375982  0.75000000  1
  B  B17  1  0.83375982  0.16624018  0.75000000  1
  B  B18  1  0.66691337  0.83308663  0.25055917  1
  B  B19  1  0.83308663  0.66691337  0.24944083  1
  B  B20  1  0.66691337  0.83308663  0.74944083  1
  B  B21  1  0.83308663  0.66691337  0.75055917  1
  Hf  Hf22  1  0.00000000  0.50000000  0.50000000  1
  Hf  Hf23  1  0.50000000  0.00000000  0.00000000  1
