# generated using pymatgen
data_Hf3NbC4
_symmetry_space_group_name_H-M   'P 1'
_cell_length_a   9.20889293
_cell_length_b   9.20889293
_cell_length_c   4.60063406
_cell_angle_alpha   90.00000000
_cell_angle_beta   90.00000000
_cell_angle_gamma   89.99379918
_symmetry_Int_Tables_number   1
_chemical_formula_structural   Hf3NbC4
_chemical_formula_sum   'Hf12 Nb4 C16'
_cell_volume   390.15082990
_cell_formula_units_Z   4
loop_
 _symmetry_equiv_pos_site_id
 _symmetry_equiv_pos_as_xyz
  1  'x, y, z'
loop_
 _atom_site_type_symbol
 _atom_site_label
 _atom_site_symmetry_multiplicity
 _atom_site_fract_x
 _atom_site_fract_y
 _atom_site_fract_z
 _atom_site_occupancy
  Nb  Nb0  1  0.00095436  0.99904564  0.00000000  1
  Nb  Nb1  1  0.25017912  0.50184488  0.50000000  1
  Nb  Nb2  1  0.25020471  0.74979529  0.00000000  1
  Nb  Nb3  1  0.49815512  0.74982088  0.50000000  1
  Hf  Hf4  1  0.00074832  0.24970373  0.50000000  1
  Hf  Hf5  1  0.24955138  0.99880006  0.50000000  1
  Hf  Hf6  1  0.25006321  0.25070585  0.00000000  1
  Hf  Hf7  1  0.00155739  0.50062027  0.00000000  1
  Hf  Hf8  1  0.00119994  0.75044862  0.50000000  1
  Hf  Hf9  1  0.49937973  0.99844261  0.00000000  1
  Hf  Hf10  1  0.49924583  0.25028042  0.50000000  1
  Hf  Hf11  1  0.75029627  0.99925168  0.50000000  1
  Hf  Hf12  1  0.75049322  0.24950678  0.00000000  1
  Hf  Hf13  1  0.49896232  0.50103768  0.00000000  1
  Hf  Hf14  1  0.74971958  0.50075417  0.50000000  1
  Hf  Hf15  1  0.74929415  0.74993679  0.00000000  1
  C  C16  1  0.24967197  0.25237399  0.50000000  1
  C  C17  1  0.24742798  0.99604275  0.00000000  1
  C  C18  1  0.00105895  0.24731036  0.00000000  1
  C  C19  1  0.00122296  0.99877704  0.50000000  1
  C  C20  1  0.25153286  0.74846714  0.50000000  1
  C  C21  1  0.25033805  0.50356264  0.00000000  1
  C  C22  1  0.00395725  0.75257202  0.00000000  1
  C  C23  1  0.00472575  0.50117036  0.50000000  1
  C  C24  1  0.75050853  0.24949147  0.50000000  1
  C  C25  1  0.75268964  0.99894105  0.00000000  1
  C  C26  1  0.49881409  0.25065347  0.00000000  1
  C  C27  1  0.49882964  0.99527425  0.50000000  1
  C  C28  1  0.74762601  0.75032803  0.50000000  1
  C  C29  1  0.74934653  0.50118591  0.00000000  1
  C  C30  1  0.49643736  0.74966195  0.00000000  1
  C  C31  1  0.49580778  0.50419222  0.50000000  1
