# generated using pymatgen
data_Hf13Zr3C16
_symmetry_space_group_name_H-M   'P 1'
_cell_length_a   9.31471490
_cell_length_b   9.31504428
_cell_length_c   4.65644854
_cell_angle_alpha   90.00000000
_cell_angle_beta   90.00000000
_cell_angle_gamma   89.99891197
_symmetry_Int_Tables_number   1
_chemical_formula_structural   Hf13Zr3C16
_chemical_formula_sum   'Hf13 Zr3 C16'
_cell_volume   404.02598549
_cell_formula_units_Z   1
loop_
 _symmetry_equiv_pos_site_id
 _symmetry_equiv_pos_as_xyz
  1  'x, y, z'
loop_
 _atom_site_type_symbol
 _atom_site_label
 _atom_site_symmetry_multiplicity
 _atom_site_fract_x
 _atom_site_fract_y
 _atom_site_fract_z
 _atom_site_occupancy
  Hf  Hf0  1  0.99981002  0.00027102  0.00000000  1
  Hf  Hf1  1  0.99981702  0.25035770  0.50000000  1
  Hf  Hf2  1  0.24973249  0.25072630  0.00000000  1
  Hf  Hf3  1  0.00018269  0.49973003  0.00000000  1
  Hf  Hf4  1  0.00019770  0.74963815  0.50000000  1
  Hf  Hf5  1  0.24991314  0.49991443  0.50000000  1
  Hf  Hf6  1  0.24974845  0.74927479  0.00000000  1
  Hf  Hf7  1  0.50017840  0.25073420  0.50000000  1
  Hf  Hf8  1  0.75044302  0.00046167  0.50000000  1
  Hf  Hf9  1  0.75026894  0.25033752  0.00000000  1
  Hf  Hf10  1  0.49981813  0.49974581  0.00000000  1
  Hf  Hf11  1  0.49980052  0.74926456  0.50000000  1
  Hf  Hf12  1  0.75008902  0.49953767  0.50000000  1
  Zr  Zr13  1  0.24954942  0.00008844  0.50000000  1
  Zr  Zr14  1  0.50019059  0.00026255  0.00000000  1
  Zr  Zr15  1  0.75026064  0.74965537  0.00000000  1
  C  C16  1  0.24994235  0.25154153  0.50000000  1
  C  C17  1  0.24850289  0.00010611  0.00000000  1
  C  C18  1  0.00004234  0.25016370  0.00000000  1
  C  C19  1  0.99857859  0.00005870  0.50000000  1
  C  C20  1  0.24994156  0.74845015  0.50000000  1
  C  C21  1  0.24989421  0.49989819  0.00000000  1
  C  C22  1  0.00141900  0.74983812  0.00000000  1
  C  C23  1  0.99995896  0.49994037  0.50000000  1
  C  C24  1  0.75005804  0.25016213  0.50000000  1
  C  C25  1  0.75149993  0.00150476  0.00000000  1
  C  C26  1  0.49995838  0.25154381  0.00000000  1
  C  C27  1  0.50143576  0.00005929  0.50000000  1
  C  C28  1  0.75005873  0.74983285  0.50000000  1
  C  C29  1  0.75010081  0.49852117  0.00000000  1
  C  C30  1  0.49856316  0.74843944  0.00000000  1
  C  C31  1  0.50004513  0.49993947  0.50000000  1
