# generated using pymatgen
data_Hf13Nb3C16
_symmetry_space_group_name_H-M   'P 1'
_cell_length_a   9.24167619
_cell_length_b   9.21867299
_cell_length_c   4.61017664
_cell_angle_alpha   90.00000000
_cell_angle_beta   90.00000000
_cell_angle_gamma   89.97097234
_symmetry_Int_Tables_number   1
_chemical_formula_structural   Hf13Nb3C16
_chemical_formula_sum   'Hf13 Nb3 C16'
_cell_volume   392.76851576
_cell_formula_units_Z   1
loop_
 _symmetry_equiv_pos_site_id
 _symmetry_equiv_pos_as_xyz
  1  'x, y, z'
loop_
 _atom_site_type_symbol
 _atom_site_label
 _atom_site_symmetry_multiplicity
 _atom_site_fract_x
 _atom_site_fract_y
 _atom_site_fract_z
 _atom_site_occupancy
  Hf  Hf0  1  0.00074239  0.99977135  0.00000000  1
  Hf  Hf1  1  0.00020632  0.24933049  0.50000000  1
  Hf  Hf2  1  0.25035727  0.24855999  0.00000000  1
  Hf  Hf3  1  0.99961020  0.50044618  0.00000000  1
  Hf  Hf4  1  0.99945011  0.75075181  0.50000000  1
  Hf  Hf5  1  0.25029731  0.49998992  0.50000000  1
  Hf  Hf6  1  0.25029631  0.75147205  0.00000000  1
  Hf  Hf7  1  0.49992762  0.24831182  0.50000000  1
  Hf  Hf8  1  0.74922237  0.99931069  0.50000000  1
  Hf  Hf9  1  0.74960954  0.24933558  0.00000000  1
  Hf  Hf10  1  0.50020223  0.50027764  0.00000000  1
  Hf  Hf11  1  0.50041933  0.75126659  0.50000000  1
  Hf  Hf12  1  0.74978741  0.50079238  0.50000000  1
  Nb  Nb13  1  0.25118878  0.99967918  0.50000000  1
  Nb  Nb14  1  0.49950319  0.99960506  0.00000000  1
  Nb  Nb15  1  0.74930986  0.75127924  0.00000000  1
  C  C16  1  0.25072231  0.24560917  0.50000000  1
  C  C17  1  0.25285930  0.99961932  0.00000000  1
  C  C18  1  0.00047146  0.24908305  0.00000000  1
  C  C19  1  0.00237854  0.99920330  0.50000000  1
  C  C20  1  0.25083010  0.75468169  0.50000000  1
  C  C21  1  0.25033552  0.50013463  0.00000000  1
  C  C22  1  0.99730740  0.75105794  0.00000000  1
  C  C23  1  0.99964661  0.50068199  0.50000000  1
  C  C24  1  0.74927401  0.24904848  0.50000000  1
  C  C25  1  0.74674103  0.99622811  0.00000000  1
  C  C26  1  0.49966483  0.24566729  0.00000000  1
  C  C27  1  0.49805302  0.99931598  0.50000000  1
  C  C28  1  0.74908973  0.75108101  0.50000000  1
  C  C29  1  0.74964523  0.50349524  0.00000000  1
  C  C30  1  0.50260251  0.75417000  0.00000000  1
  C  C31  1  0.50024818  0.50074286  0.50000000  1
