# generated using pymatgen
data_Hf11V5C16
_symmetry_space_group_name_H-M   'P 1'
_cell_length_a   9.02834704
_cell_length_b   9.01788108
_cell_length_c   4.53248588
_cell_angle_alpha   90.00000000
_cell_angle_beta   90.00000000
_cell_angle_gamma   89.91119853
_symmetry_Int_Tables_number   1
_chemical_formula_structural   Hf11V5C16
_chemical_formula_sum   'Hf11 V5 C16'
_cell_volume   369.01896522
_cell_formula_units_Z   1
loop_
 _symmetry_equiv_pos_site_id
 _symmetry_equiv_pos_as_xyz
  1  'x, y, z'
loop_
 _atom_site_type_symbol
 _atom_site_label
 _atom_site_symmetry_multiplicity
 _atom_site_fract_x
 _atom_site_fract_y
 _atom_site_fract_z
 _atom_site_occupancy
  Hf  Hf0  1  0.00053676  0.99641491  0.00000000  1
  Hf  Hf1  1  0.00195065  0.25683903  0.50000000  1
  Hf  Hf2  1  0.25000000  -0.00000000  0.50000000  1
  Hf  Hf3  1  0.25169295  0.25652404  0.00000000  1
  Hf  Hf4  1  0.24830705  0.74347596  0.00000000  1
  Hf  Hf5  1  0.49946324  0.00358509  0.00000000  1
  Hf  Hf6  1  0.75000000  -0.00000000  0.50000000  1
  Hf  Hf7  1  0.74668861  0.25526827  0.00000000  1
  Hf  Hf8  1  0.49804935  0.74316097  0.50000000  1
  Hf  Hf9  1  0.75000000  0.50000000  0.50000000  1
  Hf  Hf10  1  0.75331139  0.74473173  0.00000000  1
  C  C11  1  0.25798653  0.26141181  0.50000000  1
  C  C12  1  0.25000000  -0.00000000  0.00000000  1
  C  C13  1  0.00192150  0.26052648  0.00000000  1
  C  C14  1  0.00082384  0.99607894  0.50000000  1
  C  C15  1  0.24201347  0.73858819  0.50000000  1
  C  C16  1  0.25000000  0.50000000  0.00000000  1
  C  C17  1  0.00244666  0.73753198  0.00000000  1
  C  C18  1  0.00885934  0.50893022  0.50000000  1
  C  C19  1  0.74450735  0.25361886  0.50000000  1
  C  C20  1  0.75000000  -0.00000000  0.00000000  1
  C  C21  1  0.49755334  0.26246802  0.00000000  1
  C  C22  1  0.49917616  0.00392106  0.50000000  1
  C  C23  1  0.75549265  0.74638114  0.50000000  1
  C  C24  1  0.75000000  0.50000000  0.00000000  1
  C  C25  1  0.49807850  0.73947352  0.00000000  1
  C  C26  1  0.49114066  0.49106978  0.50000000  1
  V  V27  1  0.00961405  0.50312607  0.00000000  1
  V  V28  1  0.00599139  0.73843976  0.50000000  1
  V  V29  1  0.25000000  0.50000000  0.50000000  1
  V  V30  1  0.49400861  0.26156024  0.50000000  1
  V  V31  1  0.49038595  0.49687393  0.00000000  1
