# generated using pymatgen
data_TaVC2
_symmetry_space_group_name_H-M   'P 1'
_cell_length_a   8.71370976
_cell_length_b   8.68296775
_cell_length_c   4.33674607
_cell_angle_alpha   90.00000000
_cell_angle_beta   90.00000000
_cell_angle_gamma   89.85477354
_symmetry_Int_Tables_number   1
_chemical_formula_structural   TaVC2
_chemical_formula_sum   'Ta8 V8 C16'
_cell_volume   328.12088691
_cell_formula_units_Z   8
loop_
 _symmetry_equiv_pos_site_id
 _symmetry_equiv_pos_as_xyz
  1  'x, y, z'
loop_
 _atom_site_type_symbol
 _atom_site_label
 _atom_site_symmetry_multiplicity
 _atom_site_fract_x
 _atom_site_fract_y
 _atom_site_fract_z
 _atom_site_occupancy
  Ta  Ta0  1  0.99511352  0.99368680  0.00000000  1
  Ta  Ta1  1  0.99676887  0.25412639  0.50000000  1
  Ta  Ta2  1  0.25638754  0.98891342  0.50000000  1
  Ta  Ta3  1  0.24969277  0.25532753  0.00000000  1
  Ta  Ta4  1  0.50433102  0.24409282  0.50000000  1
  Ta  Ta5  1  0.49322851  0.50868129  0.00000000  1
  Ta  Ta6  1  0.75567770  0.50193811  0.50000000  1
  Ta  Ta7  1  0.74940937  0.75612901  0.00000000  1
  C  C8  1  0.24988202  0.25150740  0.50000000  1
  C  C9  1  0.25235800  0.99488948  0.00000000  1
  C  C10  1  0.99514545  0.25267851  0.00000000  1
  C  C11  1  0.99800985  0.99493752  0.50000000  1
  C  C12  1  0.25165174  0.74340484  0.50000000  1
  C  C13  1  0.24567351  0.50542281  0.00000000  1
  C  C14  1  0.00383463  0.74493085  0.00000000  1
  C  C15  1  0.00444908  0.50459914  0.50000000  1
  C  C16  1  0.75020509  0.24673228  0.50000000  1
  C  C17  1  0.74595128  0.00356893  0.00000000  1
  C  C18  1  0.50310995  0.24875727  0.00000000  1
  C  C19  1  0.50424591  0.99473347  0.50000000  1
  C  C20  1  0.75105890  0.75430428  0.50000000  1
  C  C21  1  0.75218732  0.49853671  0.00000000  1
  C  C22  1  0.49500956  0.75686460  0.00000000  1
  C  C23  1  0.49757676  0.50505806  0.50000000  1
  V  V24  1  0.01004756  0.50901043  0.00000000  1
  V  V25  1  0.00837702  0.74053497  0.50000000  1
  V  V26  1  0.24091662  0.50968142  0.50000000  1
  V  V27  1  0.24473702  0.74169543  0.00000000  1
  V  V28  1  0.50873824  0.99684809  0.00000000  1
  V  V29  1  0.74080620  0.00108721  0.50000000  1
  V  V30  1  0.74589290  0.23901079  0.00000000  1
  V  V31  1  0.49952601  0.75831014  0.50000000  1
