# generated using pymatgen
data_Ta7VC8
_symmetry_space_group_name_H-M   'P 1'
_cell_length_a   8.92249040
_cell_length_b   8.91553572
_cell_length_c   4.43371441
_cell_angle_alpha   90.00000000
_cell_angle_beta   90.00000000
_cell_angle_gamma   90.00000000
_symmetry_Int_Tables_number   1
_chemical_formula_structural   Ta7VC8
_chemical_formula_sum   'Ta14 V2 C16'
_cell_volume   352.69658049
_cell_formula_units_Z   2
loop_
 _symmetry_equiv_pos_site_id
 _symmetry_equiv_pos_as_xyz
  1  'x, y, z'
loop_
 _atom_site_type_symbol
 _atom_site_label
 _atom_site_symmetry_multiplicity
 _atom_site_fract_x
 _atom_site_fract_y
 _atom_site_fract_z
 _atom_site_occupancy
  Ta  Ta0  1  0.99743791  0.00000000  0.00000000  1
  Ta  Ta1  1  0.00224707  0.25789413  0.50000000  1
  Ta  Ta2  1  0.25256209  0.00000000  0.50000000  1
  Ta  Ta3  1  0.24775293  0.25789413  -0.00000000  1
  Ta  Ta4  1  0.00224707  0.74210587  0.50000000  1
  Ta  Ta5  1  0.24775293  0.74210587  -0.00000000  1
  Ta  Ta6  1  0.50307219  0.00000000  0.00000000  1
  Ta  Ta7  1  0.49860597  0.25006768  0.50000000  1
  Ta  Ta8  1  0.74692781  0.00000000  0.50000000  1
  Ta  Ta9  1  0.75139403  0.25006768  0.00000000  1
  Ta  Ta10  1  0.49111860  0.50000000  0.00000000  1
  Ta  Ta11  1  0.49860597  0.74993232  0.50000000  1
  Ta  Ta12  1  0.75888140  0.50000000  0.50000000  1
  Ta  Ta13  1  0.75139403  0.74993232  0.00000000  1
  C  C14  1  0.24973492  0.25326522  0.50000000  1
  C  C15  1  0.24870160  0.00000000  0.00000000  1
  C  C16  1  0.00026508  0.25326522  0.00000000  1
  C  C17  1  0.00129840  0.00000000  0.50000000  1
  C  C18  1  0.24973492  0.74673478  0.50000000  1
  C  C19  1  0.24632863  0.50000000  0.00000000  1
  C  C20  1  0.00026508  0.74673478  0.00000000  1
  C  C21  1  0.00367137  0.50000000  0.50000000  1
  C  C22  1  0.75087295  0.25150880  0.50000000  1
  C  C23  1  0.75151951  0.00000000  0.00000000  1
  C  C24  1  0.49912705  0.25150880  -0.00000000  1
  C  C25  1  0.49848049  0.00000000  0.50000000  1
  C  C26  1  0.75087295  0.74849120  0.50000000  1
  C  C27  1  0.75063637  0.50000000  0.00000000  1
  C  C28  1  0.49912705  0.74849120  0.00000000  1
  C  C29  1  0.49936363  0.50000000  0.50000000  1
  V  V30  1  0.01343757  0.50000000  0.00000000  1
  V  V31  1  0.23656243  0.50000000  0.50000000  1
