# generated using pymatgen
data_Ta9V7C16
_symmetry_space_group_name_H-M   'P 1'
_cell_length_a   8.76094489
_cell_length_b   8.72257813
_cell_length_c   4.36267866
_cell_angle_alpha   90.00000000
_cell_angle_beta   90.00000000
_cell_angle_gamma   89.91589249
_symmetry_Int_Tables_number   1
_chemical_formula_structural   Ta9V7C16
_chemical_formula_sum   'Ta9 V7 C16'
_cell_volume   333.38693328
_cell_formula_units_Z   1
loop_
 _symmetry_equiv_pos_site_id
 _symmetry_equiv_pos_as_xyz
  1  'x, y, z'
loop_
 _atom_site_type_symbol
 _atom_site_label
 _atom_site_symmetry_multiplicity
 _atom_site_fract_x
 _atom_site_fract_y
 _atom_site_fract_z
 _atom_site_occupancy
  Ta  Ta0  1  0.99757583  -0.00045867  0.00000000  1
  Ta  Ta1  1  0.24815744  0.99510748  0.50000000  1
  Ta  Ta2  1  0.23909157  0.26028143  0.00000000  1
  Ta  Ta3  1  0.00028941  0.73869444  0.50000000  1
  Ta  Ta4  1  0.50188943  0.99778323  0.00000000  1
  Ta  Ta5  1  0.50682850  0.25497765  0.50000000  1
  Ta  Ta6  1  0.75253203  0.00244537  0.50000000  1
  Ta  Ta7  1  0.50094529  0.50204478  0.00000000  1
  Ta  Ta8  1  0.49982262  0.74566900  0.50000000  1
  V  V9  1  0.99109077  0.26261776  0.50000000  1
  V  V10  1  0.99667901  0.49763858  0.00000000  1
  V  V11  1  0.24408250  0.50689060  0.50000000  1
  V  V12  1  0.25191127  0.74128627  0.00000000  1
  V  V13  1  0.76223464  0.26592547  0.00000000  1
  V  V14  1  0.75830530  0.49570212  0.50000000  1
  V  V15  1  0.75005052  0.73111620  0.00000000  1
  C  C16  1  0.24573288  0.25520751  0.50000000  1
  C  C17  1  0.24891141  0.99980613  0.00000000  1
  C  C18  1  0.99424164  0.25646832  0.00000000  1
  C  C19  1  0.99984979  0.00111687  0.50000000  1
  C  C20  1  0.24914271  0.74461801  0.50000000  1
  C  C21  1  0.24437223  0.50621645  0.00000000  1
  C  C22  1  0.99819392  0.74419785  0.00000000  1
  C  C23  1  0.99977114  0.49408797  0.50000000  1
  C  C24  1  0.75565692  0.25574096  0.50000000  1
  C  C25  1  0.75083386  0.00116526  0.00000000  1
  C  C26  1  0.50140865  0.25114279  0.00000000  1
  C  C27  1  0.50065240  0.00010068  0.50000000  1
  C  C28  1  0.75116020  0.74415815  0.50000000  1
  C  C29  1  0.75545043  0.49977436  0.00000000  1
  C  C30  1  0.50208719  0.74867422  0.00000000  1
  C  C31  1  0.50104853  0.49980277  0.50000000  1
