# generated using pymatgen
data_Ta11V5C16
_symmetry_space_group_name_H-M   'P 1'
_cell_length_a   8.83232380
_cell_length_b   8.80184500
_cell_length_c   4.39356615
_cell_angle_alpha   90.00000000
_cell_angle_beta   90.00000000
_cell_angle_gamma   90.12242540
_symmetry_Int_Tables_number   1
_chemical_formula_structural   Ta11V5C16
_chemical_formula_sum   'Ta11 V5 C16'
_cell_volume   341.55832645
_cell_formula_units_Z   1
loop_
 _symmetry_equiv_pos_site_id
 _symmetry_equiv_pos_as_xyz
  1  'x, y, z'
loop_
 _atom_site_type_symbol
 _atom_site_label
 _atom_site_symmetry_multiplicity
 _atom_site_fract_x
 _atom_site_fract_y
 _atom_site_fract_z
 _atom_site_occupancy
  Ta  Ta0  1  0.00067279  0.99246138  0.00000000  1
  Ta  Ta1  1  0.00359755  0.26211888  0.50000000  1
  Ta  Ta2  1  0.25000000  -0.00000000  0.50000000  1
  Ta  Ta3  1  0.25524756  0.25831393  0.00000000  1
  Ta  Ta4  1  0.24475244  0.74168607  0.00000000  1
  Ta  Ta5  1  0.49932721  0.00753862  0.00000000  1
  Ta  Ta6  1  0.75000000  -0.00000000  0.50000000  1
  Ta  Ta7  1  0.74483947  0.25529955  0.00000000  1
  Ta  Ta8  1  0.49640245  0.73788112  0.50000000  1
  Ta  Ta9  1  0.75000000  0.50000000  0.50000000  1
  Ta  Ta10  1  0.75516053  0.74470045  0.00000000  1
  C  C11  1  0.25279828  0.25565176  0.50000000  1
  C  C12  1  0.25000000  -0.00000000  0.00000000  1
  C  C13  1  0.00070931  0.25443070  0.00000000  1
  C  C14  1  0.00039384  0.00002500  0.50000000  1
  C  C15  1  0.24720172  0.74434824  0.50000000  1
  C  C16  1  0.25000000  0.50000000  0.00000000  1
  C  C17  1  0.00035366  0.74499946  0.00000000  1
  C  C18  1  0.00455034  0.50577407  0.50000000  1
  C  C19  1  0.74866591  0.25106811  0.50000000  1
  C  C20  1  0.75000000  -0.00000000  0.00000000  1
  C  C21  1  0.49964634  0.25500054  0.00000000  1
  C  C22  1  0.49960616  0.99997500  0.50000000  1
  C  C23  1  0.75133409  0.74893189  0.50000000  1
  C  C24  1  0.75000000  0.50000000  0.00000000  1
  C  C25  1  0.49929069  0.74556930  0.00000000  1
  C  C26  1  0.49544966  0.49422593  0.50000000  1
  V  V27  1  0.00415616  0.51034036  0.00000000  1
  V  V28  1  0.00267303  0.73973418  0.50000000  1
  V  V29  1  0.25000000  0.50000000  0.50000000  1
  V  V30  1  0.49732697  0.26026582  0.50000000  1
  V  V31  1  0.49584384  0.48965964  0.00000000  1
