# generated using pymatgen
data_Ta5V3C8
_symmetry_space_group_name_H-M   'P 1'
_cell_length_a   8.75050778
_cell_length_b   8.81753462
_cell_length_c   4.37881586
_cell_angle_alpha   90.00000000
_cell_angle_beta   90.00000000
_cell_angle_gamma   90.00000000
_symmetry_Int_Tables_number   1
_chemical_formula_structural   Ta5V3C8
_chemical_formula_sum   'Ta10 V6 C16'
_cell_volume   337.86025942
_cell_formula_units_Z   2
loop_
 _symmetry_equiv_pos_site_id
 _symmetry_equiv_pos_as_xyz
  1  'x, y, z'
loop_
 _atom_site_type_symbol
 _atom_site_label
 _atom_site_symmetry_multiplicity
 _atom_site_fract_x
 _atom_site_fract_y
 _atom_site_fract_z
 _atom_site_occupancy
  Ta  Ta0  1  0.99688951  0.99750075  0.00000000  1
  Ta  Ta1  1  0.99688951  0.25249925  0.50000000  1
  Ta  Ta2  1  0.25846333  0.00130131  0.50000000  1
  Ta  Ta3  1  0.25846333  0.24869869  0.00000000  1
  Ta  Ta4  1  0.99115245  0.50292208  0.00000000  1
  Ta  Ta5  1  0.99115245  0.74707792  0.50000000  1
  Ta  Ta6  1  0.26517878  0.49870573  0.50000000  1
  Ta  Ta7  1  0.26517878  0.75129427  0.00000000  1
  Ta  Ta8  1  0.73966386  0.99250358  0.50000000  1
  Ta  Ta9  1  0.73966386  0.25749642  0.00000000  1
  C  C10  1  0.25426184  0.25080359  0.50000000  1
  C  C11  1  0.25426184  0.99919641  0.00000000  1
  C  C12  1  0.99824265  0.25071394  0.00000000  1
  C  C13  1  0.99824265  0.99928606  0.50000000  1
  C  C14  1  0.25553906  0.74903597  0.50000000  1
  C  C15  1  0.25553906  0.50096403  0.00000000  1
  C  C16  1  0.99828694  0.74969987  0.00000000  1
  C  C17  1  0.99828694  0.50030013  0.50000000  1
  C  C18  1  0.74372593  0.25191647  0.50000000  1
  C  C19  1  0.74372593  0.99808353  0.00000000  1
  C  C20  1  0.49979580  0.25179742  0.00000000  1
  C  C21  1  0.49979580  0.99820258  0.50000000  1
  C  C22  1  0.74358650  0.74525945  0.50000000  1
  C  C23  1  0.74358650  0.50474055  0.00000000  1
  C  C24  1  0.50789332  0.74940688  0.00000000  1
  C  C25  1  0.50789332  0.50059312  0.50000000  1
  V  V26  1  0.49967205  0.00410214  0.00000000  1
  V  V27  1  0.49967205  0.24589786  0.50000000  1
  V  V28  1  0.50992702  0.50370794  0.00000000  1
  V  V29  1  0.50992702  0.74629206  0.50000000  1
  V  V30  1  0.73772094  0.51076276  0.50000000  1
  V  V31  1  0.73772094  0.73923724  0.00000000  1
