# generated using pymatgen
data_Ta15VC16
_symmetry_space_group_name_H-M   'P 1'
_cell_length_a   8.95084085
_cell_length_b   8.95084085
_cell_length_c   4.44545418
_cell_angle_alpha   90.00000000
_cell_angle_beta   90.00000000
_cell_angle_gamma   90.00000000
_symmetry_Int_Tables_number   1
_chemical_formula_structural   Ta15VC16
_chemical_formula_sum   'Ta15 V1 C16'
_cell_volume   356.15890608
_cell_formula_units_Z   1
loop_
 _symmetry_equiv_pos_site_id
 _symmetry_equiv_pos_as_xyz
  1  'x, y, z'
loop_
 _atom_site_type_symbol
 _atom_site_label
 _atom_site_symmetry_multiplicity
 _atom_site_fract_x
 _atom_site_fract_y
 _atom_site_fract_z
 _atom_site_occupancy
  Ta  Ta0  1  0.99815099  0.00184901  -0.00000000  1
  Ta  Ta1  1  0.99230904  0.25000000  0.50000000  1
  Ta  Ta2  1  0.25000000  0.99687314  0.50000000  1
  Ta  Ta3  1  0.25000000  0.25000000  0.00000000  1
  Ta  Ta4  1  0.99815099  0.49815099  0.00000000  1
  Ta  Ta5  1  0.00312686  0.75000000  0.50000000  1
  Ta  Ta6  1  0.25000000  0.50312686  0.50000000  1
  Ta  Ta7  1  0.25000000  0.75000000  0.00000000  1
  Ta  Ta8  1  0.50184901  0.00184901  0.00000000  1
  Ta  Ta9  1  0.50769096  0.25000000  0.50000000  1
  Ta  Ta10  1  0.75000000  0.00769096  0.50000000  1
  Ta  Ta11  1  0.50184901  0.49815099  0.00000000  1
  Ta  Ta12  1  0.49687314  0.75000000  0.50000000  1
  Ta  Ta13  1  0.75000000  0.49230904  0.50000000  1
  Ta  Ta14  1  0.75000000  0.75000000  0.00000000  1
  C  C15  1  0.25000000  0.25000000  0.50000000  1
  C  C16  1  0.25000000  0.00180678  -0.00000000  1
  C  C17  1  0.99849966  0.25000000  -0.00000000  1
  C  C18  1  0.99955625  0.00044375  0.50000000  1
  C  C19  1  0.25000000  0.75000000  0.50000000  1
  C  C20  1  0.25000000  0.49819322  0.00000000  1
  C  C21  1  0.99819322  0.75000000  0.00000000  1
  C  C22  1  0.99955625  0.49955625  0.50000000  1
  C  C23  1  0.75000000  0.25000000  0.50000000  1
  C  C24  1  0.75000000  0.00150034  -0.00000000  1
  C  C25  1  0.50150034  0.25000000  0.00000000  1
  C  C26  1  0.50044375  0.00044375  0.50000000  1
  C  C27  1  0.75000000  0.75000000  0.50000000  1
  C  C28  1  0.75000000  0.49849966  -0.00000000  1
  C  C29  1  0.50180678  0.75000000  0.00000000  1
  C  C30  1  0.50044375  0.49955625  0.50000000  1
  V  V31  1  0.75000000  0.25000000  0.00000000  1
