# generated using pymatgen
data_Ta13V3C16
_symmetry_space_group_name_H-M   'P 1'
_cell_length_a   8.89129232
_cell_length_b   8.88466156
_cell_length_c   4.41915613
_cell_angle_alpha   90.00000000
_cell_angle_beta   90.00000000
_cell_angle_gamma   90.10852228
_symmetry_Int_Tables_number   1
_chemical_formula_structural   Ta13V3C16
_chemical_formula_sum   'Ta13 V3 C16'
_cell_volume   349.09557530
_cell_formula_units_Z   1
loop_
 _symmetry_equiv_pos_site_id
 _symmetry_equiv_pos_as_xyz
  1  'x, y, z'
loop_
 _atom_site_type_symbol
 _atom_site_label
 _atom_site_symmetry_multiplicity
 _atom_site_fract_x
 _atom_site_fract_y
 _atom_site_fract_z
 _atom_site_occupancy
  Ta  Ta0  1  0.00595465  0.99765759  0.00000000  1
  Ta  Ta1  1  0.00166685  0.24815429  0.50000000  1
  Ta  Ta2  1  0.25258122  0.24166264  0.00000000  1
  Ta  Ta3  1  0.99585010  0.50273826  0.00000000  1
  Ta  Ta4  1  0.99520741  0.75082740  0.50000000  1
  Ta  Ta5  1  0.24879728  0.50021393  0.50000000  1
  Ta  Ta6  1  0.25318835  0.75919066  0.00000000  1
  Ta  Ta7  1  0.49725792  0.24312987  0.50000000  1
  Ta  Ta8  1  0.74248568  0.99391120  0.50000000  1
  Ta  Ta9  1  0.74729467  0.24902871  0.00000000  1
  Ta  Ta10  1  0.50434434  0.50347951  0.00000000  1
  Ta  Ta11  1  0.50391410  0.75637202  0.50000000  1
  Ta  Ta12  1  0.75165413  0.50550372  0.50000000  1
  V  V13  1  0.26119935  0.00252889  0.50000000  1
  V  V14  1  0.48671459  0.00013669  0.00000000  1
  V  V15  1  0.75063352  0.74379328  0.00000000  1
  C  C16  1  0.25001504  0.24752237  0.50000000  1
  C  C17  1  0.25291364  -0.00003548  0.00000000  1
  C  C18  1  0.99990016  0.24900711  0.00000000  1
  C  C19  1  0.00033447  0.99949563  0.50000000  1
  C  C20  1  0.25069461  0.75339021  0.50000000  1
  C  C21  1  0.25109685  0.50117613  0.00000000  1
  C  C22  1  0.99912555  0.75117740  0.00000000  1
  C  C23  1  0.00097645  0.49985854  0.50000000  1
  C  C24  1  0.74927254  0.24799044  0.50000000  1
  C  C25  1  0.74882673  0.99718613  0.00000000  1
  C  C26  1  0.50020721  0.24732604  0.00000000  1
  C  C27  1  0.49658863  0.99964470  0.50000000  1
  C  C28  1  0.74942847  0.75070324  0.50000000  1
  C  C29  1  0.74918601  0.50131186  0.00000000  1
  C  C30  1  0.50333428  0.75530600  0.00000000  1
  C  C31  1  0.49935518  0.50061101  0.50000000  1
