# generated using pymatgen
data_TaNbC2
_symmetry_space_group_name_H-M   'P 1'
_cell_length_a   8.99088170
_cell_length_b   8.98939601
_cell_length_c   4.45692093
_cell_angle_alpha   90.00000000
_cell_angle_beta   90.00000000
_cell_angle_gamma   89.89655263
_symmetry_Int_Tables_number   1
_chemical_formula_structural   TaNbC2
_chemical_formula_sum   'Ta8 Nb8 C16'
_cell_volume   360.21933304
_cell_formula_units_Z   8
loop_
 _symmetry_equiv_pos_site_id
 _symmetry_equiv_pos_as_xyz
  1  'x, y, z'
loop_
 _atom_site_type_symbol
 _atom_site_label
 _atom_site_symmetry_multiplicity
 _atom_site_fract_x
 _atom_site_fract_y
 _atom_site_fract_z
 _atom_site_occupancy
  Ta  Ta0  1  0.99627925  0.99805334  0.00000000  1
  Ta  Ta1  1  0.99676726  0.25278154  0.50000000  1
  Ta  Ta2  1  0.25292249  0.99650834  0.50000000  1
  Ta  Ta3  1  0.25045222  0.25395438  0.00000000  1
  Ta  Ta4  1  0.50320182  0.24673835  0.50000000  1
  Ta  Ta5  1  0.49627261  0.50083433  0.00000000  1
  Ta  Ta6  1  0.75271946  0.49850659  0.50000000  1
  Ta  Ta7  1  0.75080054  0.75371489  0.00000000  1
  C  C8  1  0.24998265  0.24791549  0.50000000  1
  C  C9  1  0.24773244  0.00185800  0.00000000  1
  C  C10  1  0.00197640  0.24794510  0.00000000  1
  C  C11  1  0.00221264  0.00142261  0.50000000  1
  C  C12  1  0.25052936  0.75263920  0.50000000  1
  C  C13  1  0.25237607  0.49815341  0.00000000  1
  C  C14  1  0.99791138  0.75216872  0.00000000  1
  C  C15  1  0.99740149  0.49795435  0.50000000  1
  C  C16  1  0.75030236  0.25255534  0.50000000  1
  C  C17  1  0.75241135  0.99724333  0.00000000  1
  C  C18  1  0.49771676  0.25237000  0.00000000  1
  C  C19  1  0.49742070  0.00128347  0.50000000  1
  C  C20  1  0.74993009  0.74765556  0.50000000  1
  C  C21  1  0.74793307  0.50226769  0.00000000  1
  C  C22  1  0.50196993  0.74785323  0.00000000  1
  C  C23  1  0.50221043  0.49867461  0.50000000  1
  Nb  Nb24  1  0.00524593  0.50243059  0.00000000  1
  Nb  Nb25  1  0.00324634  0.74616408  0.50000000  1
  Nb  Nb26  1  0.24623720  0.50400471  0.50000000  1
  Nb  Nb27  1  0.24884133  0.74477705  0.00000000  1
  Nb  Nb28  1  0.50511866  0.99962468  0.00000000  1
  Nb  Nb29  1  0.74585970  0.00300893  0.50000000  1
  Nb  Nb30  1  0.74896543  0.24468239  0.00000000  1
  Nb  Nb31  1  0.49705264  0.75425567  0.50000000  1
