# generated using pymatgen
data_Ta3VC4
_symmetry_space_group_name_H-M   'P 1'
_cell_length_a   8.85073287
_cell_length_b   8.85073287
_cell_length_c   4.40527072
_cell_angle_alpha   90.00000000
_cell_angle_beta   90.00000000
_cell_angle_gamma   90.09228185
_symmetry_Int_Tables_number   1
_chemical_formula_structural   Ta3VC4
_chemical_formula_sum   'Ta12 V4 C16'
_cell_volume   345.08851502
_cell_formula_units_Z   4
loop_
 _symmetry_equiv_pos_site_id
 _symmetry_equiv_pos_as_xyz
  1  'x, y, z'
loop_
 _atom_site_type_symbol
 _atom_site_label
 _atom_site_symmetry_multiplicity
 _atom_site_fract_x
 _atom_site_fract_y
 _atom_site_fract_z
 _atom_site_occupancy
  V  V0  1  0.99823424  0.00176576  0.00000000  1
  V  V1  1  0.25498150  0.51274074  0.50000000  1
  V  V2  1  0.25902939  0.74097061  0.00000000  1
  V  V3  1  0.48725926  0.74501850  0.50000000  1
  Ta  Ta4  1  0.99987919  0.24532796  0.50000000  1
  Ta  Ta5  1  0.24592430  0.99173040  0.50000000  1
  Ta  Ta6  1  0.24736075  0.25407636  0.00000000  1
  Ta  Ta7  1  0.00831525  0.50350662  0.00000000  1
  Ta  Ta8  1  0.00826960  0.75407570  0.50000000  1
  Ta  Ta9  1  0.49649338  0.99168475  0.00000000  1
  Ta  Ta10  1  0.49891873  0.25171101  0.50000000  1
  Ta  Ta11  1  0.75467204  0.00012081  0.50000000  1
  Ta  Ta12  1  0.75304501  0.24695499  0.00000000  1
  Ta  Ta13  1  0.49305033  0.50694967  0.00000000  1
  Ta  Ta14  1  0.74828899  0.50108127  0.50000000  1
  Ta  Ta15  1  0.74592364  0.75263925  0.00000000  1
  C  C16  1  0.25019085  0.25069398  0.50000000  1
  C  C17  1  0.24667303  0.99666478  0.00000000  1
  C  C18  1  0.00124226  0.24938164  0.00000000  1
  C  C19  1  0.00092709  0.99907291  0.50000000  1
  C  C20  1  0.25407981  0.74592019  0.50000000  1
  C  C21  1  0.25027588  0.50366564  0.00000000  1
  C  C22  1  0.00333522  0.75332697  0.00000000  1
  C  C23  1  0.00426388  0.50161695  0.50000000  1
  C  C24  1  0.74912995  0.25087005  0.50000000  1
  C  C25  1  0.75061836  0.99875774  0.00000000  1
  C  C26  1  0.49881415  0.24960796  0.00000000  1
  C  C27  1  0.49838305  0.99573612  0.50000000  1
  C  C28  1  0.74930602  0.74980915  0.50000000  1
  C  C29  1  0.75039204  0.50118585  0.00000000  1
  C  C30  1  0.49633436  0.74972412  0.00000000  1
  C  C31  1  0.49638850  0.50361150  0.50000000  1
