# generated using pymatgen
data_Zr3Ta5C8
_symmetry_space_group_name_H-M   'P 1'
_cell_length_a   9.10615045
_cell_length_b   9.10270112
_cell_length_c   4.56670919
_cell_angle_alpha   90.00000000
_cell_angle_beta   90.00000000
_cell_angle_gamma   90.00000000
_symmetry_Int_Tables_number   1
_chemical_formula_structural   Zr3Ta5C8
_chemical_formula_sum   'Zr6 Ta10 C16'
_cell_volume   378.53710906
_cell_formula_units_Z   2
loop_
 _symmetry_equiv_pos_site_id
 _symmetry_equiv_pos_as_xyz
  1  'x, y, z'
loop_
 _atom_site_type_symbol
 _atom_site_label
 _atom_site_symmetry_multiplicity
 _atom_site_fract_x
 _atom_site_fract_y
 _atom_site_fract_z
 _atom_site_occupancy
  Ta  Ta0  1  0.00008678  0.00114360  0.00000000  1
  Ta  Ta1  1  0.00008678  0.24885640  0.50000000  1
  Ta  Ta2  1  0.24998352  0.00016700  0.50000000  1
  Ta  Ta3  1  0.24998352  0.24983300  0.00000000  1
  Ta  Ta4  1  0.99967749  0.49892109  0.00000000  1
  Ta  Ta5  1  0.99967749  0.75107891  0.50000000  1
  Ta  Ta6  1  0.25004161  0.50017857  0.50000000  1
  Ta  Ta7  1  0.25004161  0.74982143  0.00000000  1
  Ta  Ta8  1  0.75069133  0.00100365  0.50000000  1
  Ta  Ta9  1  0.75069133  0.24899635  0.00000000  1
  C  C10  1  0.24437366  0.24977173  0.50000000  1
  C  C11  1  0.24437366  0.00022827  0.00000000  1
  C  C12  1  0.00084782  0.24911549  0.00000000  1
  C  C13  1  0.00084782  0.00088451  0.50000000  1
  C  C14  1  0.24415321  0.75014227  0.50000000  1
  C  C15  1  0.24415321  0.49985773  0.00000000  1
  C  C16  1  0.00501957  0.75071064  0.00000000  1
  C  C17  1  0.00501957  0.49928936  0.50000000  1
  C  C18  1  0.75603827  0.24539686  0.50000000  1
  C  C19  1  0.75603827  0.00460314  0.00000000  1
  C  C20  1  0.49906419  0.24940991  0.00000000  1
  C  C21  1  0.49906419  0.00059009  0.50000000  1
  C  C22  1  0.75701598  0.75511550  0.50000000  1
  C  C23  1  0.75701598  0.49488450  0.00000000  1
  C  C24  1  0.49292741  0.75053972  0.00000000  1
  C  C25  1  0.49292741  0.49946028  0.50000000  1
  Zr  Zr26  1  0.49976101  0.00044937  0.00000000  1
  Zr  Zr27  1  0.49976101  0.24955063  0.50000000  1
  Zr  Zr28  1  0.49888959  0.49960039  0.00000000  1
  Zr  Zr29  1  0.49888959  0.75039961  0.50000000  1
  Zr  Zr30  1  0.75142858  0.49885609  0.50000000  1
  Zr  Zr31  1  0.75142858  0.75114391  0.00000000  1
