# generated using pymatgen
data_Ta11Nb5C16
_symmetry_space_group_name_H-M   'P 1'
_cell_length_a   8.98423018
_cell_length_b   8.98412515
_cell_length_c   4.45729698
_cell_angle_alpha   90.00000000
_cell_angle_beta   90.00000000
_cell_angle_gamma   90.07379429
_symmetry_Int_Tables_number   1
_chemical_formula_structural   Ta11Nb5C16
_chemical_formula_sum   'Ta11 Nb5 C16'
_cell_volume   359.77242567
_cell_formula_units_Z   1
loop_
 _symmetry_equiv_pos_site_id
 _symmetry_equiv_pos_as_xyz
  1  'x, y, z'
loop_
 _atom_site_type_symbol
 _atom_site_label
 _atom_site_symmetry_multiplicity
 _atom_site_fract_x
 _atom_site_fract_y
 _atom_site_fract_z
 _atom_site_occupancy
  Ta  Ta0  1  0.99969678  0.99520276  0.00000000  1
  Ta  Ta1  1  0.00058063  0.25192692  0.50000000  1
  Ta  Ta2  1  0.25000000  0.00000000  0.50000000  1
  Ta  Ta3  1  0.25462951  0.25227076  0.00000000  1
  Ta  Ta4  1  0.24537049  0.74772924  0.00000000  1
  Ta  Ta5  1  0.50030322  0.00479724  0.00000000  1
  Ta  Ta6  1  0.75000000  0.00000000  0.50000000  1
  Ta  Ta7  1  0.74524528  0.25110546  0.00000000  1
  Ta  Ta8  1  0.49941937  0.74807308  0.50000000  1
  Ta  Ta9  1  0.75000000  0.50000000  0.50000000  1
  Ta  Ta10  1  0.75475472  0.74889454  0.00000000  1
  C  C11  1  0.24720368  0.24860289  0.50000000  1
  C  C12  1  0.25000000  0.00000000  0.00000000  1
  C  C13  1  0.00002342  0.24877649  0.00000000  1
  C  C14  1  0.00011745  0.00281425  0.50000000  1
  C  C15  1  0.25279632  0.75139711  0.50000000  1
  C  C16  1  0.25000000  0.50000000  0.00000000  1
  C  C17  1  0.00020917  0.75153214  0.00000000  1
  C  C18  1  0.99840457  0.49715633  0.50000000  1
  C  C19  1  0.75267003  0.25026108  0.50000000  1
  C  C20  1  0.75000000  0.00000000  0.00000000  1
  C  C21  1  0.49979083  0.24846786  0.00000000  1
  C  C22  1  0.49988255  0.99718575  0.50000000  1
  C  C23  1  0.74732997  0.74973892  0.50000000  1
  C  C24  1  0.75000000  0.50000000  0.00000000  1
  C  C25  1  0.49997658  0.75122351  0.00000000  1
  C  C26  1  0.50159543  0.50284367  0.50000000  1
  Nb  Nb27  1  0.00138455  0.50632967  0.00000000  1
  Nb  Nb28  1  0.00034362  0.74849950  0.50000000  1
  Nb  Nb29  1  0.25000000  0.50000000  0.50000000  1
  Nb  Nb30  1  0.49965638  0.25150050  0.50000000  1
  Nb  Nb31  1  0.49861545  0.49367033  0.00000000  1
