# generated using pymatgen
data_Ta15NbC16
_symmetry_space_group_name_H-M   'P 1'
_cell_length_a   8.98025153
_cell_length_b   8.98025153
_cell_length_c   4.45582901
_cell_angle_alpha   90.00000000
_cell_angle_beta   90.00000000
_cell_angle_gamma   90.00000000
_symmetry_Int_Tables_number   1
_chemical_formula_structural   Ta15NbC16
_chemical_formula_sum   'Ta15 Nb1 C16'
_cell_volume   359.33996309
_cell_formula_units_Z   1
loop_
 _symmetry_equiv_pos_site_id
 _symmetry_equiv_pos_as_xyz
  1  'x, y, z'
loop_
 _atom_site_type_symbol
 _atom_site_label
 _atom_site_symmetry_multiplicity
 _atom_site_fract_x
 _atom_site_fract_y
 _atom_site_fract_z
 _atom_site_occupancy
  Ta  Ta0  1  0.99939485  0.00060515  0.00000000  1
  Ta  Ta1  1  0.99755045  0.25000000  0.50000000  1
  Ta  Ta2  1  0.25000000  -0.00114372  0.50000000  1
  Ta  Ta3  1  0.25000000  0.25000000  -0.00000000  1
  Ta  Ta4  1  0.99939485  0.49939485  -0.00000000  1
  Ta  Ta5  1  0.00114372  0.75000000  0.50000000  1
  Ta  Ta6  1  0.25000000  0.50114372  0.50000000  1
  Ta  Ta7  1  0.25000000  0.75000000  -0.00000000  1
  Ta  Ta8  1  0.50060515  0.00060515  -0.00000000  1
  Ta  Ta9  1  0.50244955  0.25000000  0.50000000  1
  Ta  Ta10  1  0.75000000  0.00244955  0.50000000  1
  Ta  Ta11  1  0.50060515  0.49939485  -0.00000000  1
  Ta  Ta12  1  0.49885628  0.75000000  0.50000000  1
  Ta  Ta13  1  0.75000000  0.49755045  0.50000000  1
  Ta  Ta14  1  0.75000000  0.75000000  -0.00000000  1
  C  C15  1  0.25000000  0.25000000  0.50000000  1
  C  C16  1  0.25000000  0.00038927  -0.00000000  1
  C  C17  1  0.00188011  0.25000000  -0.00000000  1
  C  C18  1  0.99985611  0.00014389  0.50000000  1
  C  C19  1  0.25000000  0.75000000  0.50000000  1
  C  C20  1  0.25000000  0.49961073  -0.00000000  1
  C  C21  1  0.99961073  0.75000000  -0.00000000  1
  C  C22  1  0.99985611  0.49985611  0.50000000  1
  C  C23  1  0.75000000  0.25000000  0.50000000  1
  C  C24  1  0.75000000  0.99811989  0.00000000  1
  C  C25  1  0.49811989  0.25000000  0.00000000  1
  C  C26  1  0.50014389  0.00014389  0.50000000  1
  C  C27  1  0.75000000  0.75000000  0.50000000  1
  C  C28  1  0.75000000  0.50188011  -0.00000000  1
  C  C29  1  0.50038927  0.75000000  -0.00000000  1
  C  C30  1  0.50014389  0.49985611  0.50000000  1
  Nb  Nb31  1  0.75000000  0.25000000  -0.00000000  1
