# generated using pymatgen
data_ZrTaC2
_symmetry_space_group_name_H-M   'P 1'
_cell_length_a   9.16147500
_cell_length_b   9.17552019
_cell_length_c   4.59101139
_cell_angle_alpha   90.00000000
_cell_angle_beta   90.00000000
_cell_angle_gamma   90.08825620
_symmetry_Int_Tables_number   1
_chemical_formula_structural   ZrTaC2
_chemical_formula_sum   'Zr8 Ta8 C16'
_cell_volume   385.92592236
_cell_formula_units_Z   8
loop_
 _symmetry_equiv_pos_site_id
 _symmetry_equiv_pos_as_xyz
  1  'x, y, z'
loop_
 _atom_site_type_symbol
 _atom_site_label
 _atom_site_symmetry_multiplicity
 _atom_site_fract_x
 _atom_site_fract_y
 _atom_site_fract_z
 _atom_site_occupancy
  Ta  Ta0  1  0.00036435  -0.00056155  0.00000000  1
  Ta  Ta1  1  0.00077045  0.24975449  0.50000000  1
  Ta  Ta2  1  0.24968209  0.00038397  0.50000000  1
  Ta  Ta3  1  0.25002069  0.25023163  0.00000000  1
  Ta  Ta4  1  0.49923067  0.25014614  0.50000000  1
  Ta  Ta5  1  0.50047405  0.50052551  0.00000000  1
  Ta  Ta6  1  0.74941059  0.50005635  0.50000000  1
  Ta  Ta7  1  0.74998211  0.74911945  0.00000000  1
  C  C8  1  0.24991638  0.24608245  0.50000000  1
  C  C9  1  0.24559002  0.00579179  0.00000000  1
  C  C10  1  0.00446849  0.24561526  0.00000000  1
  C  C11  1  0.00427892  0.00468615  0.50000000  1
  C  C12  1  0.24987854  0.75633692  0.50000000  1
  C  C13  1  0.25529319  0.49340925  0.00000000  1
  C  C14  1  0.99491630  0.75535435  0.00000000  1
  C  C15  1  0.99483084  0.49418588  0.50000000  1
  C  C16  1  0.74980163  0.25469836  0.50000000  1
  C  C17  1  0.75515588  0.99600616  0.00000000  1
  C  C18  1  0.49566310  0.25426934  0.00000000  1
  C  C19  1  0.49467530  0.00607295  0.50000000  1
  C  C20  1  0.74998163  0.74494364  0.50000000  1
  C  C21  1  0.74575647  0.50293955  0.00000000  1
  C  C22  1  0.50534207  0.74438969  0.00000000  1
  C  C23  1  0.50439689  0.49538891  0.50000000  1
  Zr  Zr24  1  0.99893033  0.49941997  0.00000000  1
  Zr  Zr25  1  0.99920956  0.75098767  0.50000000  1
  Zr  Zr26  1  0.25085523  0.49888142  0.50000000  1
  Zr  Zr27  1  0.25000795  0.75126144  0.00000000  1
  Zr  Zr28  1  0.49927375  0.00058955  0.00000000  1
  Zr  Zr29  1  0.75099431  -0.00051974  0.50000000  1
  Zr  Zr30  1  0.75004780  0.25046607  0.00000000  1
  Zr  Zr31  1  0.50080044  0.74908699  0.50000000  1
