# generated using pymatgen
data_Zr7Ta9C16
_symmetry_space_group_name_H-M   'P 1'
_cell_length_a   9.13276696
_cell_length_b   9.13688386
_cell_length_c   4.57774531
_cell_angle_alpha   90.00000000
_cell_angle_beta   90.00000000
_cell_angle_gamma   90.03551111
_symmetry_Int_Tables_number   1
_chemical_formula_structural   Zr7Ta9C16
_chemical_formula_sum   'Zr7 Ta9 C16'
_cell_volume   381.99002630
_cell_formula_units_Z   1
loop_
 _symmetry_equiv_pos_site_id
 _symmetry_equiv_pos_as_xyz
  1  'x, y, z'
loop_
 _atom_site_type_symbol
 _atom_site_label
 _atom_site_symmetry_multiplicity
 _atom_site_fract_x
 _atom_site_fract_y
 _atom_site_fract_z
 _atom_site_occupancy
  Ta  Ta0  1  0.00086500  0.00034727  0.00000000  1
  Ta  Ta1  1  0.24978621  0.00006808  0.50000000  1
  Ta  Ta2  1  0.25084398  0.24902163  0.00000000  1
  Ta  Ta3  1  0.99944886  0.75054886  0.50000000  1
  Ta  Ta4  1  0.49944715  0.00048416  0.00000000  1
  Ta  Ta5  1  0.49994107  0.24912529  0.50000000  1
  Ta  Ta6  1  0.75030296  0.99978171  0.50000000  1
  Ta  Ta7  1  0.50016957  0.49845181  0.00000000  1
  Ta  Ta8  1  0.50020295  0.75091628  0.50000000  1
  Zr  Zr9  1  0.00090353  0.24893079  0.50000000  1
  Zr  Zr10  1  0.00017104  0.50072343  0.00000000  1
  Zr  Zr11  1  0.25115481  0.49951114  0.50000000  1
  Zr  Zr12  1  0.25056763  0.75125605  0.00000000  1
  Zr  Zr13  1  0.74864231  0.24827326  0.00000000  1
  Zr  Zr14  1  0.74851715  0.50063642  0.50000000  1
  Zr  Zr15  1  0.74943087  0.75135846  0.00000000  1
  C  C16  1  0.25553064  0.24460937  0.50000000  1
  C  C17  1  0.25106861  0.00365936  0.00000000  1
  C  C18  1  0.00553046  0.24345762  0.00000000  1
  C  C19  1  0.00055131  0.99629583  0.50000000  1
  C  C20  1  0.25115947  0.75598167  0.50000000  1
  C  C21  1  0.25618173  0.49503883  0.00000000  1
  C  C22  1  -0.00000481  0.75645154  0.00000000  1
  C  C23  1  0.00038495  0.50577521  0.50000000  1
  C  C24  1  0.74379317  0.24363618  0.50000000  1
  C  C25  1  0.74910819  0.99941723  0.00000000  1
  C  C26  1  0.49558360  0.24836831  0.00000000  1
  C  C27  1  0.49921140  0.00033319  0.50000000  1
  C  C28  1  0.74903077  0.75591088  0.50000000  1
  C  C29  1  0.74318928  0.50044108  0.00000000  1
  C  C30  1  0.49985757  0.75186000  0.00000000  1
  C  C31  1  0.49942857  0.49932909  0.50000000  1
