# generated using pymatgen
data_Ta7NbC8
_symmetry_space_group_name_H-M   'P 1'
_cell_length_a   8.98546573
_cell_length_b   8.98371598
_cell_length_c   4.45700234
_cell_angle_alpha   90.00000000
_cell_angle_beta   90.00000000
_cell_angle_gamma   90.00000000
_symmetry_Int_Tables_number   1
_chemical_formula_structural   Ta7NbC8
_chemical_formula_sum   'Ta14 Nb2 C16'
_cell_volume   359.78202969
_cell_formula_units_Z   2
loop_
 _symmetry_equiv_pos_site_id
 _symmetry_equiv_pos_as_xyz
  1  'x, y, z'
loop_
 _atom_site_type_symbol
 _atom_site_label
 _atom_site_symmetry_multiplicity
 _atom_site_fract_x
 _atom_site_fract_y
 _atom_site_fract_z
 _atom_site_occupancy
  Ta  Ta0  1  -0.00237696  -0.00000000  0.00000000  1
  Ta  Ta1  1  0.00052896  0.25354527  0.50000000  1
  Ta  Ta2  1  0.25237696  -0.00000000  0.50000000  1
  Ta  Ta3  1  0.24947104  0.25354527  -0.00000000  1
  Ta  Ta4  1  0.00052896  0.74645473  0.50000000  1
  Ta  Ta5  1  0.24947104  0.74645473  0.00000000  1
  Ta  Ta6  1  0.50244862  -0.00000000  0.00000000  1
  Ta  Ta7  1  0.49950785  0.24825163  0.50000000  1
  Ta  Ta8  1  0.74755138  -0.00000000  0.50000000  1
  Ta  Ta9  1  0.75049215  0.24825163  -0.00000000  1
  Ta  Ta10  1  0.49723059  0.50000000  0.00000000  1
  Ta  Ta11  1  0.49950785  0.75174837  0.50000000  1
  Ta  Ta12  1  0.75276941  0.50000000  0.50000000  1
  Ta  Ta13  1  0.75049215  0.75174837  -0.00000000  1
  C  C14  1  0.24988971  0.24802600  0.50000000  1
  C  C15  1  0.24928560  -0.00000000  0.00000000  1
  C  C16  1  0.00011029  0.24802600  0.00000000  1
  C  C17  1  0.00071440  -0.00000000  0.50000000  1
  C  C18  1  0.24988971  0.75197400  0.50000000  1
  C  C19  1  0.25233875  0.50000000  0.00000000  1
  C  C20  1  0.00011029  0.75197400  -0.00000000  1
  C  C21  1  0.99766125  0.50000000  0.50000000  1
  C  C22  1  0.75028030  0.25082024  0.50000000  1
  C  C23  1  0.75062399  -0.00000000  0.00000000  1
  C  C24  1  0.49971970  0.25082024  0.00000000  1
  C  C25  1  0.49937601  -0.00000000  0.50000000  1
  C  C26  1  0.75028030  0.74917976  0.50000000  1
  C  C27  1  0.74778577  0.50000000  0.00000000  1
  C  C28  1  0.49971970  0.74917976  -0.00000000  1
  C  C29  1  0.50221423  0.50000000  0.50000000  1
  Nb  Nb30  1  0.00382112  0.50000000  0.00000000  1
  Nb  Nb31  1  0.24617888  0.50000000  0.50000000  1
