# generated using pymatgen
data_HfTaC2
_symmetry_space_group_name_H-M   'P 1'
_cell_length_a   9.09979980
_cell_length_b   9.11149595
_cell_length_c   4.56081761
_cell_angle_alpha   90.00000000
_cell_angle_beta   90.00000000
_cell_angle_gamma   90.02997165
_symmetry_Int_Tables_number   1
_chemical_formula_structural   HfTaC2
_chemical_formula_sum   'Hf8 Ta8 C16'
_cell_volume   378.15005639
_cell_formula_units_Z   8
loop_
 _symmetry_equiv_pos_site_id
 _symmetry_equiv_pos_as_xyz
  1  'x, y, z'
loop_
 _atom_site_type_symbol
 _atom_site_label
 _atom_site_symmetry_multiplicity
 _atom_site_fract_x
 _atom_site_fract_y
 _atom_site_fract_z
 _atom_site_occupancy
  Ta  Ta0  1  0.00045470  -0.00049820  0.00000000  1
  Ta  Ta1  1  0.00088301  0.24951431  0.50000000  1
  Ta  Ta2  1  0.24962030  0.00051764  0.50000000  1
  Ta  Ta3  1  0.25004376  0.25005415  0.00000000  1
  Ta  Ta4  1  0.49909790  0.25033404  0.50000000  1
  Ta  Ta5  1  0.50054445  0.50048642  0.00000000  1
  Ta  Ta6  1  0.74935188  0.50015529  0.50000000  1
  Ta  Ta7  1  0.74998293  0.74912893  0.00000000  1
  C  C8  1  0.25000496  0.24750880  0.50000000  1
  C  C9  1  0.24734234  0.00392677  0.00000000  1
  C  C10  1  0.00266182  0.24721980  0.00000000  1
  C  C11  1  0.00253707  0.00260591  0.50000000  1
  C  C12  1  0.24995475  0.75377919  0.50000000  1
  C  C13  1  0.25329636  0.49548877  0.00000000  1
  C  C14  1  0.99664525  0.75325970  0.00000000  1
  C  C15  1  0.99675477  0.49652345  0.50000000  1
  C  C16  1  0.74989931  0.25304964  0.50000000  1
  C  C17  1  0.75321611  0.99785775  0.00000000  1
  C  C18  1  0.49736156  0.25279926  0.00000000  1
  C  C19  1  0.49672868  0.00363526  0.50000000  1
  C  C20  1  0.75001860  0.74702387  0.50000000  1
  C  C21  1  0.74743409  0.50143457  0.00000000  1
  C  C22  1  0.50341180  0.74659734  0.00000000  1
  C  C23  1  0.50269679  0.49737881  0.50000000  1
  Hf  Hf24  1  0.99913723  0.49969523  0.00000000  1
  Hf  Hf25  1  0.99949638  0.75066177  0.50000000  1
  Hf  Hf26  1  0.25057979  0.49934762  0.50000000  1
  Hf  Hf27  1  0.25003067  0.75090160  0.00000000  1
  Hf  Hf28  1  0.49950777  0.00026419  0.00000000  1
  Hf  Hf29  1  0.75075829  0.99950142  0.50000000  1
  Hf  Hf30  1  0.75005939  0.25037226  0.00000000  1
  Hf  Hf31  1  0.50048727  0.74947444  0.50000000  1
