# generated using pymatgen
data_Hf3Ta5C8
_symmetry_space_group_name_H-M   'P 1'
_cell_length_a   9.06105278
_cell_length_b   9.05999877
_cell_length_c   4.54596248
_cell_angle_alpha   90.00000000
_cell_angle_beta   90.00000000
_cell_angle_gamma   90.00000000
_symmetry_Int_Tables_number   1
_chemical_formula_structural   Hf3Ta5C8
_chemical_formula_sum   'Hf6 Ta10 C16'
_cell_volume   373.19227540
_cell_formula_units_Z   2
loop_
 _symmetry_equiv_pos_site_id
 _symmetry_equiv_pos_as_xyz
  1  'x, y, z'
loop_
 _atom_site_type_symbol
 _atom_site_label
 _atom_site_symmetry_multiplicity
 _atom_site_fract_x
 _atom_site_fract_y
 _atom_site_fract_z
 _atom_site_occupancy
  Ta  Ta0  1  0.00011054  0.00056896  0.00000000  1
  Ta  Ta1  1  0.00011054  0.24943104  0.50000000  1
  Ta  Ta2  1  0.24960291  0.00012585  0.50000000  1
  Ta  Ta3  1  0.24960291  0.24987415  0.00000000  1
  Ta  Ta4  1  -0.00012142  0.49949531  0.00000000  1
  Ta  Ta5  1  -0.00012142  0.75050469  0.50000000  1
  Ta  Ta6  1  0.25000149  0.50014614  0.50000000  1
  Ta  Ta7  1  0.25000149  0.74985386  0.00000000  1
  Ta  Ta8  1  0.75065948  0.00139550  0.50000000  1
  Ta  Ta9  1  0.75065948  0.24860450  0.00000000  1
  C  C10  1  0.24618018  0.25005234  0.50000000  1
  C  C11  1  0.24618018  0.99994766  0.00000000  1
  C  C12  1  0.00045787  0.24914784  0.00000000  1
  C  C13  1  0.00045787  0.00085216  0.50000000  1
  C  C14  1  0.24605113  0.74996087  0.50000000  1
  C  C15  1  0.24605113  0.50003913  0.00000000  1
  C  C16  1  0.00347093  0.75075672  0.00000000  1
  C  C17  1  0.00347093  0.49924328  0.50000000  1
  C  C18  1  0.75387967  0.24741027  0.50000000  1
  C  C19  1  0.75387967  0.00258973  0.00000000  1
  C  C20  1  0.49936396  0.24944630  0.00000000  1
  C  C21  1  0.49936396  0.00055370  0.50000000  1
  C  C22  1  0.75468542  0.75283659  0.50000000  1
  C  C23  1  0.75468542  0.49716341  0.00000000  1
  C  C24  1  0.49565124  0.75052616  0.00000000  1
  C  C25  1  0.49565124  0.49947384  0.50000000  1
  Hf  Hf26  1  0.49983291  0.00033779  0.00000000  1
  Hf  Hf27  1  0.49983291  0.24966221  0.50000000  1
  Hf  Hf28  1  0.49941674  0.49968187  0.00000000  1
  Hf  Hf29  1  0.49941674  0.75031813  0.50000000  1
  Hf  Hf30  1  0.75075696  0.49893371  0.50000000  1
  Hf  Hf31  1  0.75075696  0.75106629  0.00000000  1
