# generated using pymatgen
data_ZrTa15C16
_symmetry_space_group_name_H-M   'P 1'
_cell_length_a   8.99994666
_cell_length_b   8.99994666
_cell_length_c   4.47516583
_cell_angle_alpha   90.00000000
_cell_angle_beta   90.00000000
_cell_angle_gamma   90.00000000
_symmetry_Int_Tables_number   1
_chemical_formula_structural   ZrTa15C16
_chemical_formula_sum   'Zr1 Ta15 C16'
_cell_volume   362.48413555
_cell_formula_units_Z   1
loop_
 _symmetry_equiv_pos_site_id
 _symmetry_equiv_pos_as_xyz
  1  'x, y, z'
loop_
 _atom_site_type_symbol
 _atom_site_label
 _atom_site_symmetry_multiplicity
 _atom_site_fract_x
 _atom_site_fract_y
 _atom_site_fract_z
 _atom_site_occupancy
  Ta  Ta0  1  0.00142407  0.99857593  -0.00000000  1
  Ta  Ta1  1  0.00427985  0.25000000  0.50000000  1
  Ta  Ta2  1  0.25000000  0.00286116  0.50000000  1
  Ta  Ta3  1  0.25000000  0.25000000  -0.00000000  1
  Ta  Ta4  1  0.00142407  0.50142407  -0.00000000  1
  Ta  Ta5  1  0.99713884  0.75000000  0.50000000  1
  Ta  Ta6  1  0.25000000  0.49713884  0.50000000  1
  Ta  Ta7  1  0.25000000  0.75000000  -0.00000000  1
  Ta  Ta8  1  0.49857593  0.99857593  -0.00000000  1
  Ta  Ta9  1  0.49572015  0.25000000  0.50000000  1
  Ta  Ta10  1  0.75000000  0.99572015  0.50000000  1
  Ta  Ta11  1  0.49857593  0.50142407  0.00000000  1
  Ta  Ta12  1  0.50286116  0.75000000  0.50000000  1
  Ta  Ta13  1  0.75000000  0.50427985  0.50000000  1
  Ta  Ta14  1  0.75000000  0.75000000  -0.00000000  1
  C  C15  1  0.25000000  0.25000000  0.50000000  1
  C  C16  1  0.25000000  0.99939166  -0.00000000  1
  C  C17  1  0.00334537  0.25000000  -0.00000000  1
  C  C18  1  0.00074650  0.99925350  0.50000000  1
  C  C19  1  0.25000000  0.75000000  0.50000000  1
  C  C20  1  0.25000000  0.50060834  -0.00000000  1
  C  C21  1  0.00060834  0.75000000  -0.00000000  1
  C  C22  1  0.00074650  0.50074650  0.50000000  1
  C  C23  1  0.75000000  0.25000000  0.50000000  1
  C  C24  1  0.75000000  0.99665463  0.00000000  1
  C  C25  1  0.49665463  0.25000000  -0.00000000  1
  C  C26  1  0.49925350  0.99925350  0.50000000  1
  C  C27  1  0.75000000  0.75000000  0.50000000  1
  C  C28  1  0.75000000  0.50334537  0.00000000  1
  C  C29  1  0.49939166  0.75000000  -0.00000000  1
  C  C30  1  0.49925350  0.50074650  0.50000000  1
  Zr  Zr31  1  0.75000000  0.25000000  -0.00000000  1
