# generated using pymatgen
data_Zr5Ta11C16
_symmetry_space_group_name_H-M   'P 1'
_cell_length_a   9.07551062
_cell_length_b   9.06581763
_cell_length_c   4.55624490
_cell_angle_alpha   90.00000000
_cell_angle_beta   90.00000000
_cell_angle_gamma   89.92246198
_symmetry_Int_Tables_number   1
_chemical_formula_structural   Zr5Ta11C16
_chemical_formula_sum   'Zr5 Ta11 C16'
_cell_volume   374.87347298
_cell_formula_units_Z   1
loop_
 _symmetry_equiv_pos_site_id
 _symmetry_equiv_pos_as_xyz
  1  'x, y, z'
loop_
 _atom_site_type_symbol
 _atom_site_label
 _atom_site_symmetry_multiplicity
 _atom_site_fract_x
 _atom_site_fract_y
 _atom_site_fract_z
 _atom_site_occupancy
  Ta  Ta0  1  0.00105897  0.00079276  0.00000000  1
  Ta  Ta1  1  0.99951587  0.24886736  0.50000000  1
  Ta  Ta2  1  0.25000000  -0.00000000  0.50000000  1
  Ta  Ta3  1  0.24952489  0.24957424  0.00000000  1
  Ta  Ta4  1  0.25047511  0.75042576  0.00000000  1
  Ta  Ta5  1  0.49894103  0.99920724  0.00000000  1
  Ta  Ta6  1  0.75000000  -0.00000000  0.50000000  1
  Ta  Ta7  1  0.75007728  0.24909167  0.00000000  1
  Ta  Ta8  1  0.50048413  0.75113264  0.50000000  1
  Ta  Ta9  1  0.75000000  0.50000000  0.50000000  1
  Ta  Ta10  1  0.74992272  0.75090833  0.00000000  1
  C  C11  1  0.24517069  0.24410264  0.50000000  1
  C  C12  1  0.25000000  -0.00000000  0.00000000  1
  C  C13  1  0.99894114  0.24503907  0.00000000  1
  C  C14  1  0.00003381  0.00440069  0.50000000  1
  C  C15  1  0.25482931  0.75589736  0.50000000  1
  C  C16  1  0.25000000  0.50000000  0.00000000  1
  C  C17  1  0.99909601  0.75539459  0.00000000  1
  C  C18  1  0.99442249  0.49469652  0.50000000  1
  C  C19  1  0.75429905  0.24845819  0.50000000  1
  C  C20  1  0.75000000  -0.00000000  0.00000000  1
  C  C21  1  0.50090399  0.24460541  0.00000000  1
  C  C22  1  0.49996619  0.99559931  0.50000000  1
  C  C23  1  0.74570095  0.75154181  0.50000000  1
  C  C24  1  0.75000000  0.50000000  0.00000000  1
  C  C25  1  0.50105886  0.75496093  0.00000000  1
  C  C26  1  0.50557751  0.50530348  0.50000000  1
  Zr  Zr27  1  0.99890930  0.49886983  0.00000000  1
  Zr  Zr28  1  0.99966851  0.75171512  0.50000000  1
  Zr  Zr29  1  0.25000000  0.50000000  0.50000000  1
  Zr  Zr30  1  0.50033149  0.24828488  0.50000000  1
  Zr  Zr31  1  0.50109070  0.50113017  0.00000000  1
