# generated using pymatgen
data_Hf5Ta11C16
_symmetry_space_group_name_H-M   'P 1'
_cell_length_a   9.03928027
_cell_length_b   9.03166089
_cell_length_c   4.53654970
_cell_angle_alpha   90.00000000
_cell_angle_beta   90.00000000
_cell_angle_gamma   89.94451463
_symmetry_Int_Tables_number   1
_chemical_formula_structural   Hf5Ta11C16
_chemical_formula_sum   'Hf5 Ta11 C16'
_cell_volume   370.36244700
_cell_formula_units_Z   1
loop_
 _symmetry_equiv_pos_site_id
 _symmetry_equiv_pos_as_xyz
  1  'x, y, z'
loop_
 _atom_site_type_symbol
 _atom_site_label
 _atom_site_symmetry_multiplicity
 _atom_site_fract_x
 _atom_site_fract_y
 _atom_site_fract_z
 _atom_site_occupancy
  Ta  Ta0  1  0.00091229  0.00109139  0.00000000  1
  Ta  Ta1  1  0.99955662  0.24859035  0.50000000  1
  Ta  Ta2  1  0.25000000  0.00000000  0.50000000  1
  Ta  Ta3  1  0.24927968  0.24928929  0.00000000  1
  Ta  Ta4  1  0.25072032  0.75071071  0.00000000  1
  Ta  Ta5  1  0.49908771  0.99890861  0.00000000  1
  Ta  Ta6  1  0.75000000  0.00000000  0.50000000  1
  Ta  Ta7  1  0.75039705  0.24968112  0.00000000  1
  Ta  Ta8  1  0.50044338  0.75140965  0.50000000  1
  Ta  Ta9  1  0.75000000  0.50000000  0.50000000  1
  Ta  Ta10  1  0.74960295  0.75031888  0.00000000  1
  C  C11  1  0.24698190  0.24608418  0.50000000  1
  C  C12  1  0.25000000  0.00000000  0.00000000  1
  C  C13  1  0.99909895  0.24700577  0.00000000  1
  C  C14  1  0.00025320  0.00279632  0.50000000  1
  C  C15  1  0.25301810  0.75391582  0.50000000  1
  C  C16  1  0.25000000  0.50000000  0.00000000  1
  C  C17  1  0.99918935  0.75329458  0.00000000  1
  C  C18  1  0.99660202  0.49703863  0.50000000  1
  C  C19  1  0.75278213  0.24880525  0.50000000  1
  C  C20  1  0.75000000  0.00000000  0.00000000  1
  C  C21  1  0.50081065  0.24670542  0.00000000  1
  C  C22  1  0.49974680  0.99720368  0.50000000  1
  C  C23  1  0.74721787  0.75119475  0.50000000  1
  C  C24  1  0.75000000  0.50000000  0.00000000  1
  C  C25  1  0.50090105  0.75299423  0.00000000  1
  C  C26  1  0.50339798  0.50296137  0.50000000  1
  Hf  Hf27  1  0.99928019  0.49917781  0.00000000  1
  Hf  Hf28  1  0.99980519  0.75141327  0.50000000  1
  Hf  Hf29  1  0.25000000  0.50000000  0.50000000  1
  Hf  Hf30  1  0.50019481  0.24858673  0.50000000  1
  Hf  Hf31  1  0.50071981  0.50082219  0.00000000  1
