# generated using pymatgen
data_ZrTa3C4
_symmetry_space_group_name_H-M   'P 1'
_cell_length_a   9.04858715
_cell_length_b   9.04858715
_cell_length_c   4.53972735
_cell_angle_alpha   90.00000000
_cell_angle_beta   90.00000000
_cell_angle_gamma   89.99773599
_symmetry_Int_Tables_number   1
_chemical_formula_structural   ZrTa3C4
_chemical_formula_sum   'Zr4 Ta12 C16'
_cell_volume   371.69893537
_cell_formula_units_Z   4
loop_
 _symmetry_equiv_pos_site_id
 _symmetry_equiv_pos_as_xyz
  1  'x, y, z'
loop_
 _atom_site_type_symbol
 _atom_site_label
 _atom_site_symmetry_multiplicity
 _atom_site_fract_x
 _atom_site_fract_y
 _atom_site_fract_z
 _atom_site_occupancy
  Zr  Zr0  1  0.99913444  0.00086556  0.00000000  1
  Zr  Zr1  1  0.24953211  0.49884205  0.50000000  1
  Zr  Zr2  1  0.24923318  0.75076682  0.00000000  1
  Zr  Zr3  1  0.50115795  0.75046789  0.50000000  1
  Ta  Ta4  1  -0.00039100  0.25030093  0.50000000  1
  Ta  Ta5  1  0.25013686  0.00134843  0.50000000  1
  Ta  Ta6  1  0.25142407  0.24992923  0.00000000  1
  Ta  Ta7  1  0.99857359  0.49903911  0.00000000  1
  Ta  Ta8  1  0.99865157  0.74986314  0.50000000  1
  Ta  Ta9  1  0.50096089  0.00142641  0.00000000  1
  Ta  Ta10  1  0.50067767  0.24965402  0.50000000  1
  Ta  Ta11  1  0.74969907  0.00039100  0.50000000  1
  Ta  Ta12  1  0.74919516  0.25080484  0.00000000  1
  Ta  Ta13  1  0.50173054  0.49826946  0.00000000  1
  Ta  Ta14  1  0.75034598  0.49932233  0.50000000  1
  Ta  Ta15  1  0.75007077  0.74857593  0.00000000  1
  C  C16  1  0.25103112  0.24662809  0.50000000  1
  C  C17  1  0.25386005  0.00536292  0.00000000  1
  C  C18  1  0.99958724  0.25357592  0.00000000  1
  C  C19  1  0.99955532  0.00044468  0.50000000  1
  C  C20  1  0.24529667  0.75470333  0.50000000  1
  C  C21  1  0.24893537  0.49445969  0.00000000  1
  C  C22  1  0.99463708  0.74613995  0.00000000  1
  C  C23  1  0.99510320  0.49946941  0.50000000  1
  C  C24  1  0.74911033  0.25088967  0.50000000  1
  C  C25  1  0.74642408  0.00041276  0.00000000  1
  C  C26  1  0.50052676  0.24896443  0.00000000  1
  C  C27  1  0.50053059  0.00489680  0.50000000  1
  C  C28  1  0.75337191  0.74896888  0.50000000  1
  C  C29  1  0.75103557  0.49947324  0.00000000  1
  C  C30  1  0.50554031  0.75106463  0.00000000  1
  C  C31  1  0.50532151  0.49467849  0.50000000  1
