# generated using pymatgen
data_Hf7Ta9C16
_symmetry_space_group_name_H-M   'P 1'
_cell_length_a   9.07844083
_cell_length_b   9.08205247
_cell_length_c   4.55172270
_cell_angle_alpha   90.00000000
_cell_angle_beta   90.00000000
_cell_angle_gamma   90.02748567
_symmetry_Int_Tables_number   1
_chemical_formula_structural   Hf7Ta9C16
_chemical_formula_sum   'Hf7 Ta9 C16'
_cell_volume   375.29348037
_cell_formula_units_Z   1
loop_
 _symmetry_equiv_pos_site_id
 _symmetry_equiv_pos_as_xyz
  1  'x, y, z'
loop_
 _atom_site_type_symbol
 _atom_site_label
 _atom_site_symmetry_multiplicity
 _atom_site_fract_x
 _atom_site_fract_y
 _atom_site_fract_z
 _atom_site_occupancy
  Ta  Ta0  1  0.00071891  0.00043512  0.00000000  1
  Ta  Ta1  1  0.24991161  0.00037642  0.50000000  1
  Ta  Ta2  1  0.25128663  0.24858854  0.00000000  1
  Ta  Ta3  1  0.99929730  0.75049910  0.50000000  1
  Ta  Ta4  1  0.49945371  0.00092803  0.00000000  1
  Ta  Ta5  1  0.49973307  0.24947715  0.50000000  1
  Ta  Ta6  1  0.75019317  0.99978103  0.50000000  1
  Ta  Ta7  1  0.49993543  0.49841150  0.00000000  1
  Ta  Ta8  1  0.50037339  0.75063733  0.50000000  1
  Hf  Hf9  1  0.00065813  0.24943250  0.50000000  1
  Hf  Hf10  1  0.00016918  0.50028754  0.00000000  1
  Hf  Hf11  1  0.25070915  0.49963909  0.50000000  1
  Hf  Hf12  1  0.25046320  0.75099730  0.00000000  1
  Hf  Hf13  1  0.74885906  0.24867755  0.00000000  1
  Hf  Hf14  1  0.74894289  0.50038557  0.50000000  1
  Hf  Hf15  1  0.74946821  0.75088863  0.00000000  1
  C  C16  1  0.25355862  0.24673040  0.50000000  1
  C  C17  1  0.25073047  0.00206276  0.00000000  1
  C  C18  1  0.00318260  0.24555510  0.00000000  1
  C  C19  1  0.00037829  0.99781714  0.50000000  1
  C  C20  1  0.25076540  0.75369218  0.50000000  1
  C  C21  1  0.25419588  0.49753310  0.00000000  1
  C  C22  1  -0.00010435  0.75427847  0.00000000  1
  C  C23  1  0.00044913  0.50318740  0.50000000  1
  C  C24  1  0.74615936  0.24592787  0.50000000  1
  C  C25  1  0.74939975  0.99939466  0.00000000  1
  C  C26  1  0.49729650  0.24891252  0.00000000  1
  C  C27  1  0.49933078  0.00048773  0.50000000  1
  C  C28  1  0.74947195  0.75363708  0.50000000  1
  C  C29  1  0.74555776  0.50050540  0.00000000  1
  C  C30  1  0.49996389  0.75133254  0.00000000  1
  C  C31  1  0.49949092  0.49950328  0.50000000  1
