# generated using pymatgen
data_HfTa3C4
_symmetry_space_group_name_H-M   'P 1'
_cell_length_a   9.02087066
_cell_length_b   9.02087065
_cell_length_c   4.52342407
_cell_angle_alpha   90.00000000
_cell_angle_beta   90.00000000
_cell_angle_gamma   89.99852741
_symmetry_Int_Tables_number   1
_chemical_formula_structural   HfTa3C4
_chemical_formula_sum   'Hf4 Ta12 C16'
_cell_volume   368.09864282
_cell_formula_units_Z   4
loop_
 _symmetry_equiv_pos_site_id
 _symmetry_equiv_pos_as_xyz
  1  'x, y, z'
loop_
 _atom_site_type_symbol
 _atom_site_label
 _atom_site_symmetry_multiplicity
 _atom_site_fract_x
 _atom_site_fract_y
 _atom_site_fract_z
 _atom_site_occupancy
  Hf  Hf0  1  0.99941830  0.00058170  0.00000000  1
  Hf  Hf1  1  0.24975999  0.49922034  0.50000000  1
  Hf  Hf2  1  0.24928664  0.75071336  0.00000000  1
  Hf  Hf3  1  0.50077966  0.75024001  0.50000000  1
  Ta  Ta4  1  0.00006455  0.25051117  0.50000000  1
  Ta  Ta5  1  0.25031989  0.00144563  0.50000000  1
  Ta  Ta6  1  0.25115812  0.24965049  0.00000000  1
  Ta  Ta7  1  0.99804538  0.49925186  0.00000000  1
  Ta  Ta8  1  0.99855437  0.74968011  0.50000000  1
  Ta  Ta9  1  0.50074814  0.00195462  0.00000000  1
  Ta  Ta10  1  0.50019022  0.24966463  0.50000000  1
  Ta  Ta11  1  0.74948883  0.99993545  0.50000000  1
  Ta  Ta12  1  0.74926550  0.25073450  0.00000000  1
  Ta  Ta13  1  0.50231527  0.49768473  0.00000000  1
  Ta  Ta14  1  0.75033537  0.49980978  0.50000000  1
  Ta  Ta15  1  0.75034951  0.74884188  0.00000000  1
  C  C16  1  0.25098509  0.24839324  0.50000000  1
  C  C17  1  0.25190290  0.00332472  0.00000000  1
  C  C18  1  0.99978089  0.25186122  0.00000000  1
  C  C19  1  0.99965251  0.00034749  0.50000000  1
  C  C20  1  0.24767118  0.75232882  0.50000000  1
  C  C21  1  0.24885150  0.49653342  0.00000000  1
  C  C22  1  0.99667528  0.74809710  0.00000000  1
  C  C23  1  0.99693213  0.49956610  0.50000000  1
  C  C24  1  0.74886138  0.25113862  0.50000000  1
  C  C25  1  0.74813878  0.00021911  0.00000000  1
  C  C26  1  0.50035884  0.24882094  0.00000000  1
  C  C27  1  0.50043390  0.00306787  0.50000000  1
  C  C28  1  0.75160676  0.74901491  0.50000000  1
  C  C29  1  0.75117906  0.49964116  0.00000000  1
  C  C30  1  0.50346658  0.75114850  0.00000000  1
  C  C31  1  0.50342354  0.49657646  0.50000000  1
