# generated using pymatgen
data_Zr3Ta13C16
_symmetry_space_group_name_H-M   'P 1'
_cell_length_a   9.04680434
_cell_length_b   9.01729911
_cell_length_c   4.51829189
_cell_angle_alpha   90.00000000
_cell_angle_beta   90.00000000
_cell_angle_gamma   89.95719930
_symmetry_Int_Tables_number   1
_chemical_formula_structural   Zr3Ta13C16
_chemical_formula_sum   'Zr3 Ta13 C16'
_cell_volume   368.59194131
_cell_formula_units_Z   1
loop_
 _symmetry_equiv_pos_site_id
 _symmetry_equiv_pos_as_xyz
  1  'x, y, z'
loop_
 _atom_site_type_symbol
 _atom_site_label
 _atom_site_symmetry_multiplicity
 _atom_site_fract_x
 _atom_site_fract_y
 _atom_site_fract_z
 _atom_site_occupancy
  Ta  Ta0  1  0.99979583  0.00075039  0.00000000  1
  Ta  Ta1  1  0.99812852  0.25077502  0.50000000  1
  Ta  Ta2  1  0.24880919  0.25231130  0.00000000  1
  Ta  Ta3  1  0.00193699  0.49944655  0.00000000  1
  Ta  Ta4  1  0.00085738  0.74946228  0.50000000  1
  Ta  Ta5  1  0.25120874  0.49979683  0.50000000  1
  Ta  Ta6  1  0.24904720  0.74763448  0.00000000  1
  Ta  Ta7  1  0.50213082  0.25206871  0.50000000  1
  Ta  Ta8  1  0.75121723  0.00239390  0.50000000  1
  Ta  Ta9  1  0.75126439  0.25127668  0.00000000  1
  Ta  Ta10  1  0.49780189  0.49912239  0.00000000  1
  Ta  Ta11  1  0.49898792  0.74729495  0.50000000  1
  Ta  Ta12  1  0.74853771  0.49785181  0.50000000  1
  Zr  Zr13  1  0.24904875  0.00016875  0.50000000  1
  Zr  Zr14  1  0.50064545  0.00059488  0.00000000  1
  Zr  Zr15  1  0.75058373  0.74897648  0.00000000  1
  C  C16  1  0.24921797  0.25483183  0.50000000  1
  C  C17  1  0.24534593  0.00022805  0.00000000  1
  C  C18  1  0.99931562  0.25089415  0.00000000  1
  C  C19  1  0.99685235  0.00080469  0.50000000  1
  C  C20  1  0.24916156  0.74538262  0.50000000  1
  C  C21  1  0.25014282  0.49999710  0.00000000  1
  C  C22  1  0.00309347  0.74924796  0.00000000  1
  C  C23  1  0.00073203  0.49922264  0.50000000  1
  C  C24  1  0.75058370  0.25041522  0.50000000  1
  C  C25  1  0.75427343  0.00429891  0.00000000  1
  C  C26  1  0.50098187  0.25459190  0.00000000  1
  C  C27  1  0.50433382  0.00072007  0.50000000  1
  C  C28  1  0.75066955  0.74913570  0.50000000  1
  C  C29  1  0.74981277  0.49612909  0.00000000  1
  C  C30  1  0.49642483  0.74479492  0.00000000  1
  C  C31  1  0.49905652  0.49937979  0.50000000  1
