# generated using pymatgen
data_ZrTa7C8
_symmetry_space_group_name_H-M   'P 1'
_cell_length_a   9.02574409
_cell_length_b   9.00647101
_cell_length_c   4.49660328
_cell_angle_alpha   90.00000000
_cell_angle_beta   90.00000000
_cell_angle_gamma   90.00000000
_symmetry_Int_Tables_number   1
_chemical_formula_structural   ZrTa7C8
_chemical_formula_sum   'Zr2 Ta14 C16'
_cell_volume   365.52934149
_cell_formula_units_Z   2
loop_
 _symmetry_equiv_pos_site_id
 _symmetry_equiv_pos_as_xyz
  1  'x, y, z'
loop_
 _atom_site_type_symbol
 _atom_site_label
 _atom_site_symmetry_multiplicity
 _atom_site_fract_x
 _atom_site_fract_y
 _atom_site_fract_z
 _atom_site_occupancy
  Ta  Ta0  1  0.00122428  0.00000000  -0.00000000  1
  Ta  Ta1  1  0.99910366  0.24708772  0.50000000  1
  Ta  Ta2  1  0.24877572  0.00000000  0.50000000  1
  Ta  Ta3  1  0.25089634  0.24708772  -0.00000000  1
  Ta  Ta4  1  0.99910366  0.75291228  0.50000000  1
  Ta  Ta5  1  0.25089634  0.75291228  0.00000000  1
  Ta  Ta6  1  0.49859430  0.00000000  -0.00000000  1
  Ta  Ta7  1  0.50115623  0.24966788  0.50000000  1
  Ta  Ta8  1  0.75140570  0.00000000  0.50000000  1
  Ta  Ta9  1  0.74884377  0.24966788  -0.00000000  1
  Ta  Ta10  1  0.50185605  0.50000000  -0.00000000  1
  Ta  Ta11  1  0.50115623  0.75033212  0.50000000  1
  Ta  Ta12  1  0.74814395  0.50000000  0.50000000  1
  Ta  Ta13  1  0.74884377  0.75033212  0.00000000  1
  C  C14  1  0.25090675  0.24566625  0.50000000  1
  C  C15  1  0.24994491  0.00000000  -0.00000000  1
  C  C16  1  0.99909325  0.24566625  0.00000000  1
  C  C17  1  0.00005509  0.00000000  0.50000000  1
  C  C18  1  0.25090675  0.75433375  0.50000000  1
  C  C19  1  0.25454823  0.50000000  -0.00000000  1
  C  C20  1  0.99909325  0.75433375  0.00000000  1
  C  C21  1  0.99545177  0.50000000  0.50000000  1
  C  C22  1  0.74909550  0.24906263  0.50000000  1
  C  C23  1  0.74967673  0.00000000  -0.00000000  1
  C  C24  1  0.50090450  0.24906263  -0.00000000  1
  C  C25  1  0.50032327  0.00000000  0.50000000  1
  C  C26  1  0.74909550  0.75093737  0.50000000  1
  C  C27  1  0.74664258  0.50000000  -0.00000000  1
  C  C28  1  0.50090450  0.75093737  -0.00000000  1
  C  C29  1  0.50335742  0.50000000  0.50000000  1
  Zr  Zr30  1  0.99829199  0.50000000  -0.00000000  1
  Zr  Zr31  1  0.25170801  0.50000000  0.50000000  1
