# generated using pymatgen
data_HfTa15C16
_symmetry_space_group_name_H-M   'P 1'
_cell_length_a   8.99318889
_cell_length_b   8.99318889
_cell_length_c   4.47181685
_cell_angle_alpha   90.00000000
_cell_angle_beta   90.00000000
_cell_angle_gamma   90.00000000
_symmetry_Int_Tables_number   1
_chemical_formula_structural   HfTa15C16
_chemical_formula_sum   'Hf1 Ta15 C16'
_cell_volume   361.66912765
_cell_formula_units_Z   1
loop_
 _symmetry_equiv_pos_site_id
 _symmetry_equiv_pos_as_xyz
  1  'x, y, z'
loop_
 _atom_site_type_symbol
 _atom_site_label
 _atom_site_symmetry_multiplicity
 _atom_site_fract_x
 _atom_site_fract_y
 _atom_site_fract_z
 _atom_site_occupancy
  Ta  Ta0  1  0.00139477  0.99860523  -0.00000000  1
  Ta  Ta1  1  0.00426978  0.25000000  0.50000000  1
  Ta  Ta2  1  0.25000000  0.00288018  0.50000000  1
  Ta  Ta3  1  0.25000000  0.25000000  0.00000000  1
  Ta  Ta4  1  0.00139477  0.50139477  0.00000000  1
  Ta  Ta5  1  0.99711982  0.75000000  0.50000000  1
  Ta  Ta6  1  0.25000000  0.49711982  0.50000000  1
  Ta  Ta7  1  0.25000000  0.75000000  0.00000000  1
  Ta  Ta8  1  0.49860523  0.99860523  0.00000000  1
  Ta  Ta9  1  0.49573022  0.25000000  0.50000000  1
  Ta  Ta10  1  0.75000000  0.99573022  0.50000000  1
  Ta  Ta11  1  0.49860523  0.50139477  0.00000000  1
  Ta  Ta12  1  0.50288018  0.75000000  0.50000000  1
  Ta  Ta13  1  0.75000000  0.50426978  0.50000000  1
  Ta  Ta14  1  0.75000000  0.75000000  0.00000000  1
  C  C15  1  0.25000000  0.25000000  0.50000000  1
  C  C16  1  0.25000000  0.99953058  -0.00000000  1
  C  C17  1  0.00157163  0.25000000  -0.00000000  1
  C  C18  1  0.00072930  0.99927070  0.50000000  1
  C  C19  1  0.25000000  0.75000000  0.50000000  1
  C  C20  1  0.25000000  0.50046942  0.00000000  1
  C  C21  1  0.00046942  0.75000000  -0.00000000  1
  C  C22  1  0.00072930  0.50072930  0.50000000  1
  C  C23  1  0.75000000  0.25000000  0.50000000  1
  C  C24  1  0.75000000  0.99842837  0.00000000  1
  C  C25  1  0.49842837  0.25000000  0.00000000  1
  C  C26  1  0.49927070  0.99927070  0.50000000  1
  C  C27  1  0.75000000  0.75000000  0.50000000  1
  C  C28  1  0.75000000  0.50157163  -0.00000000  1
  C  C29  1  0.49953058  0.75000000  0.00000000  1
  C  C30  1  0.49927070  0.50072930  0.50000000  1
  Hf  Hf31  1  0.75000000  0.25000000  0.00000000  1
