# generated using pymatgen
data_Hf3Ta13C16
_symmetry_space_group_name_H-M   'P 1'
_cell_length_a   9.02565060
_cell_length_b   8.99473791
_cell_length_c   4.50716976
_cell_angle_alpha   90.00000000
_cell_angle_beta   90.00000000
_cell_angle_gamma   89.96244472
_symmetry_Int_Tables_number   1
_chemical_formula_structural   Hf3Ta13C16
_chemical_formula_sum   'Hf3 Ta13 C16'
_cell_volume   365.90711397
_cell_formula_units_Z   1
loop_
 _symmetry_equiv_pos_site_id
 _symmetry_equiv_pos_as_xyz
  1  'x, y, z'
loop_
 _atom_site_type_symbol
 _atom_site_label
 _atom_site_symmetry_multiplicity
 _atom_site_fract_x
 _atom_site_fract_y
 _atom_site_fract_z
 _atom_site_occupancy
  Ta  Ta0  1  0.99959469  0.00055700  0.00000000  1
  Ta  Ta1  1  0.99795307  0.24995437  0.50000000  1
  Ta  Ta2  1  0.24887309  0.25307523  0.00000000  1
  Ta  Ta3  1  0.00202738  0.49947321  0.00000000  1
  Ta  Ta4  1  0.00107826  0.75029505  0.50000000  1
  Ta  Ta5  1  0.25112464  0.49983731  0.50000000  1
  Ta  Ta6  1  0.24923571  0.74698285  0.00000000  1
  Ta  Ta7  1  0.50209763  0.25215607  0.50000000  1
  Ta  Ta8  1  0.75131331  0.00265532  0.50000000  1
  Ta  Ta9  1  0.75119738  0.25117654  0.00000000  1
  Ta  Ta10  1  0.49782643  0.49931741  0.00000000  1
  Ta  Ta11  1  0.49878252  0.74730117  0.50000000  1
  Ta  Ta12  1  0.74870343  0.49740087  0.50000000  1
  Hf  Hf13  1  0.24932242  0.00044051  0.50000000  1
  Hf  Hf14  1  0.50051182  0.00038685  0.00000000  1
  Hf  Hf15  1  0.75032454  0.74899144  0.00000000  1
  C  C16  1  0.24925364  0.25305450  0.50000000  1
  C  C17  1  0.24741779  0.00009370  0.00000000  1
  C  C18  1  0.99920040  0.25075002  0.00000000  1
  C  C19  1  0.99866370  0.00065360  0.50000000  1
  C  C20  1  0.24915693  0.74732983  0.50000000  1
  C  C21  1  0.25027936  0.50016605  0.00000000  1
  C  C22  1  0.00139555  0.74943037  0.00000000  1
  C  C23  1  0.00079157  0.49921587  0.50000000  1
  C  C24  1  0.75049002  0.25027017  0.50000000  1
  C  C25  1  0.75227175  0.00224966  0.00000000  1
  C  C26  1  0.50102076  0.25274892  0.00000000  1
  C  C27  1  0.50217484  0.00068393  0.50000000  1
  C  C28  1  0.75074898  0.74923297  0.50000000  1
  C  C29  1  0.74971620  0.49781728  0.00000000  1
  C  C30  1  0.49837524  0.74685458  0.00000000  1
  C  C31  1  0.49907693  0.49944731  0.50000000  1
