# generated using pymatgen
data_HfTa7C8
_symmetry_space_group_name_H-M   'P 1'
_cell_length_a   9.01239298
_cell_length_b   8.99138452
_cell_length_c   4.48963950
_cell_angle_alpha   90.00000000
_cell_angle_beta   90.00000000
_cell_angle_gamma   90.00000000
_symmetry_Int_Tables_number   1
_chemical_formula_structural   HfTa7C8
_chemical_formula_sum   'Hf2 Ta14 C16'
_cell_volume   363.81295665
_cell_formula_units_Z   2
loop_
 _symmetry_equiv_pos_site_id
 _symmetry_equiv_pos_as_xyz
  1  'x, y, z'
loop_
 _atom_site_type_symbol
 _atom_site_label
 _atom_site_symmetry_multiplicity
 _atom_site_fract_x
 _atom_site_fract_y
 _atom_site_fract_z
 _atom_site_occupancy
  Ta  Ta0  1  0.00096621  0.00000000  0.00000000  1
  Ta  Ta1  1  0.99941254  0.24688193  0.50000000  1
  Ta  Ta2  1  0.24903379  0.00000000  0.50000000  1
  Ta  Ta3  1  0.25058746  0.24688193  -0.00000000  1
  Ta  Ta4  1  0.99941254  0.75311807  0.50000000  1
  Ta  Ta5  1  0.25058746  0.75311807  -0.00000000  1
  Ta  Ta6  1  0.49880152  0.00000000  0.00000000  1
  Ta  Ta7  1  0.50094569  0.25009636  0.50000000  1
  Ta  Ta8  1  0.75119848  0.00000000  0.50000000  1
  Ta  Ta9  1  0.74905431  0.25009636  0.00000000  1
  Ta  Ta10  1  0.50208199  0.50000000  0.00000000  1
  Ta  Ta11  1  0.50094569  0.74990364  0.50000000  1
  Ta  Ta12  1  0.74791801  0.50000000  0.50000000  1
  Ta  Ta13  1  0.74905431  0.74990364  0.00000000  1
  C  C14  1  0.25085987  0.24741936  0.50000000  1
  C  C15  1  0.24982428  0.00000000  0.00000000  1
  C  C16  1  0.99914013  0.24741936  0.00000000  1
  C  C17  1  0.00017572  0.00000000  0.50000000  1
  C  C18  1  0.25085987  0.75258064  0.50000000  1
  C  C19  1  0.25243957  0.50000000  0.00000000  1
  C  C20  1  0.99914013  0.75258064  0.00000000  1
  C  C21  1  0.99756043  0.50000000  0.50000000  1
  C  C22  1  0.74908895  0.24920337  0.50000000  1
  C  C23  1  0.74979976  0.00000000  0.00000000  1
  C  C24  1  0.50091105  0.24920337  0.00000000  1
  C  C25  1  0.50020024  0.00000000  0.50000000  1
  C  C26  1  0.74908895  0.75079663  0.50000000  1
  C  C27  1  0.74843860  0.50000000  0.00000000  1
  C  C28  1  0.50091105  0.75079663  0.00000000  1
  C  C29  1  0.50156140  0.50000000  0.50000000  1
  Hf  Hf30  1  0.99860498  0.50000000  0.00000000  1
  Hf  Hf31  1  0.25139502  0.50000000  0.50000000  1
