# generated using pymatgen
data_HfCr3B8
_symmetry_space_group_name_H-M   'P 1'
_cell_length_a   5.99833879
_cell_length_b   6.00290758
_cell_length_c   6.33171204
_cell_angle_alpha   90.00000000
_cell_angle_beta   90.00000000
_cell_angle_gamma   119.97482628
_symmetry_Int_Tables_number   1
_chemical_formula_structural   HfCr3B8
_chemical_formula_sum   'Hf2 Cr6 B16'
_cell_volume   197.49429092
_cell_formula_units_Z   2
loop_
 _symmetry_equiv_pos_site_id
 _symmetry_equiv_pos_as_xyz
  1  'x, y, z'
loop_
 _atom_site_type_symbol
 _atom_site_label
 _atom_site_symmetry_multiplicity
 _atom_site_fract_x
 _atom_site_fract_y
 _atom_site_fract_z
 _atom_site_occupancy
  Cr  Cr0  1  -0.00000000  -0.00000000  -0.00000000  1
  Cr  Cr1  1  -0.00000000  -0.00000000  0.50000000  1
  Cr  Cr2  1  -0.00000000  0.50000000  0.50000000  1
  Cr  Cr3  1  0.50000000  -0.00000000  -0.00000000  1
  Cr  Cr4  1  0.50000000  -0.00000000  0.50000000  1
  Cr  Cr5  1  0.50000000  0.50000000  -0.00000000  1
  B  B6  1  0.16377860  0.32755720  0.25000000  1
  B  B7  1  0.33116921  0.16233843  0.24641160  1
  B  B8  1  0.16377860  0.32755720  0.75000000  1
  B  B9  1  0.33116921  0.16233843  0.75358840  1
  B  B10  1  0.16883079  0.83766157  0.25358840  1
  B  B11  1  0.33622140  0.67244280  0.25000000  1
  B  B12  1  0.16883079  0.83766157  0.74641160  1
  B  B13  1  0.33622140  0.67244280  0.75000000  1
  B  B14  1  0.66377860  0.32755720  0.25000000  1
  B  B15  1  0.83116921  0.16233843  0.25358840  1
  B  B16  1  0.66377860  0.32755720  0.75000000  1
  B  B17  1  0.83116921  0.16233843  0.74641160  1
  B  B18  1  0.66883079  0.83766157  0.24641160  1
  B  B19  1  0.83622140  0.67244280  0.25000000  1
  B  B20  1  0.66883079  0.83766157  0.75358840  1
  B  B21  1  0.83622140  0.67244280  0.75000000  1
  Hf  Hf22  1  -0.00000000  0.50000000  -0.00000000  1
  Hf  Hf23  1  0.50000000  0.50000000  0.50000000  1
