# generated using pymatgen
data_Ta3NbC4
_symmetry_space_group_name_H-M   'P 1'
_cell_length_a   8.96123129
_cell_length_b   4.47908032
_cell_length_c   4.47924913
_cell_angle_alpha   90.00000000
_cell_angle_beta   90.00000000
_cell_angle_gamma   90.00000000
_symmetry_Int_Tables_number   1
_chemical_formula_structural   Ta3NbC4
_chemical_formula_sum   'Ta6 Nb2 C8'
_cell_volume   179.78843624
_cell_formula_units_Z   2
loop_
 _symmetry_equiv_pos_site_id
 _symmetry_equiv_pos_as_xyz
  1  'x, y, z'
loop_
 _atom_site_type_symbol
 _atom_site_label
 _atom_site_symmetry_multiplicity
 _atom_site_fract_x
 _atom_site_fract_y
 _atom_site_fract_z
 _atom_site_occupancy
  Nb  Nb0  1  0.99911800  0.00000000  0.00000000  1
  Nb  Nb1  1  0.75088200  0.50000000  0.00000000  1
  Ta  Ta2  1  0.99909086  0.50000000  0.50000000  1
  Ta  Ta3  1  0.24904325  0.00000000  0.50000000  1
  Ta  Ta4  1  0.24909756  0.50000000  0.00000000  1
  Ta  Ta5  1  0.50090244  0.00000000  0.00000000  1
  Ta  Ta6  1  0.50095675  0.50000000  0.50000000  1
  Ta  Ta7  1  0.75090914  0.00000000  0.50000000  1
  C  C8  1  0.00130586  0.50000000  0.00000000  1
  C  C9  1  0.99970418  0.00000000  0.50000000  1
  C  C10  1  0.24971434  0.50000000  0.50000000  1
  C  C11  1  0.25129971  0.00000000  0.00000000  1
  C  C12  1  0.49870029  0.50000000  0.00000000  1
  C  C13  1  0.50028566  0.00000000  0.50000000  1
  C  C14  1  0.75029582  0.50000000  0.50000000  1
  C  C15  1  0.74869414  0.00000000  0.00000000  1
