# generated using pymatgen
data_HfTa3C4
_symmetry_space_group_name_H-M   'P 1'
_cell_length_a   9.02974438
_cell_length_b   4.51158987
_cell_length_c   4.51680807
_cell_angle_alpha   90.00000000
_cell_angle_beta   90.00000000
_cell_angle_gamma   90.00000000
_symmetry_Int_Tables_number   1
_chemical_formula_structural   HfTa3C4
_chemical_formula_sum   'Hf2 Ta6 C8'
_cell_volume   184.00800035
_cell_formula_units_Z   2
loop_
 _symmetry_equiv_pos_site_id
 _symmetry_equiv_pos_as_xyz
  1  'x, y, z'
loop_
 _atom_site_type_symbol
 _atom_site_label
 _atom_site_symmetry_multiplicity
 _atom_site_fract_x
 _atom_site_fract_y
 _atom_site_fract_z
 _atom_site_occupancy
  Ta  Ta0  1  0.00213785  0.00000000  0.00000000  1
  Ta  Ta1  1  0.25171130  0.00000000  0.50000000  1
  Ta  Ta2  1  0.25156964  0.50000000  0.00000000  1
  Ta  Ta3  1  0.49828870  0.00000000  0.00000000  1
  Ta  Ta4  1  0.49843036  0.50000000  0.50000000  1
  Ta  Ta5  1  0.74786215  0.00000000  0.50000000  1
  Hf  Hf6  1  0.00102670  0.50000000  0.50000000  1
  Hf  Hf7  1  0.74897330  0.50000000  0.00000000  1
  C  C8  1  0.00265824  0.50000000  0.00000000  1
  C  C9  1  0.00120733  0.00000000  0.50000000  1
  C  C10  1  0.25183701  0.50000000  0.50000000  1
  C  C11  1  0.25095859  0.00000000  0.00000000  1
  C  C12  1  0.49816299  0.50000000  0.00000000  1
  C  C13  1  0.49904141  0.00000000  0.50000000  1
  C  C14  1  0.74734176  0.50000000  0.50000000  1
  C  C15  1  0.74879267  0.00000000  0.00000000  1
