# generated using pymatgen
data_ZrTa3C4
_symmetry_space_group_name_H-M   'P 1'
_cell_length_a   9.05762004
_cell_length_b   4.53077757
_cell_length_c   4.52654801
_cell_angle_alpha   90.00000000
_cell_angle_beta   90.00000000
_cell_angle_gamma   90.00000000
_symmetry_Int_Tables_number   1
_chemical_formula_structural   ZrTa3C4
_chemical_formula_sum   'Zr2 Ta6 C8'
_cell_volume   185.76075659
_cell_formula_units_Z   2
loop_
 _symmetry_equiv_pos_site_id
 _symmetry_equiv_pos_as_xyz
  1  'x, y, z'
loop_
 _atom_site_type_symbol
 _atom_site_label
 _atom_site_symmetry_multiplicity
 _atom_site_fract_x
 _atom_site_fract_y
 _atom_site_fract_z
 _atom_site_occupancy
  Zr  Zr0  1  0.00105287  0.00000000  0.00000000  1
  Zr  Zr1  1  0.74894713  0.50000000  0.00000000  1
  Ta  Ta2  1  0.00192091  0.50000000  0.50000000  1
  Ta  Ta3  1  0.25135942  0.00000000  0.50000000  1
  Ta  Ta4  1  0.25105596  0.50000000  0.00000000  1
  Ta  Ta5  1  0.49894404  0.00000000  0.00000000  1
  Ta  Ta6  1  0.49864058  0.50000000  0.50000000  1
  Ta  Ta7  1  0.74807909  0.00000000  0.50000000  1
  C  C8  1  0.00507472  0.50000000  0.00000000  1
  C  C9  1  0.00161854  0.00000000  0.50000000  1
  C  C10  1  0.25118022  0.50000000  0.50000000  1
  C  C11  1  0.25374750  0.00000000  0.00000000  1
  C  C12  1  0.49625250  0.50000000  0.00000000  1
  C  C13  1  0.49881978  0.00000000  0.50000000  1
  C  C14  1  0.74838146  0.50000000  0.50000000  1
  C  C15  1  0.74492528  0.00000000  0.00000000  1
