# generated using pymatgen
data_HfTi3N4
_symmetry_space_group_name_H-M   'P 1'
_cell_length_a   8.66659128
_cell_length_b   4.33854919
_cell_length_c   4.34384507
_cell_angle_alpha   90.00000000
_cell_angle_beta   90.00000000
_cell_angle_gamma   90.00000000
_symmetry_Int_Tables_number   1
_chemical_formula_structural   HfTi3N4
_chemical_formula_sum   'Hf2 Ti6 N8'
_cell_volume   163.33045368
_cell_formula_units_Z   2
loop_
 _symmetry_equiv_pos_site_id
 _symmetry_equiv_pos_as_xyz
  1  'x, y, z'
loop_
 _atom_site_type_symbol
 _atom_site_label
 _atom_site_symmetry_multiplicity
 _atom_site_fract_x
 _atom_site_fract_y
 _atom_site_fract_z
 _atom_site_occupancy
  Ti  Ti0  1  0.00991823  0.00000000  0.00000000  1
  Ti  Ti1  1  0.25843371  0.00000000  0.50000000  1
  Ti  Ti2  1  0.25495583  0.50000000  0.00000000  1
  Ti  Ti3  1  0.49156629  0.00000000  0.00000000  1
  Ti  Ti4  1  0.49504417  0.50000000  0.50000000  1
  Ti  Ti5  1  0.74008177  0.00000000  0.50000000  1
  Hf  Hf6  1  0.00531017  0.50000000  0.50000000  1
  Hf  Hf7  1  0.74468983  0.50000000  0.00000000  1
  N  N8  1  0.25456561  0.50000000  0.50000000  1
  N  N9  1  0.25167374  0.00000000  0.00000000  1
  N  N10  1  0.00291547  0.50000000  0.00000000  1
  N  N11  1  0.00264717  0.00000000  0.50000000  1
  N  N12  1  0.74708453  0.50000000  0.50000000  1
  N  N13  1  0.74735283  0.00000000  0.00000000  1
  N  N14  1  0.49543439  0.50000000  0.00000000  1
  N  N15  1  0.49832626  0.00000000  0.50000000  1
