# generated using pymatgen
data_Hf3TiN4
_symmetry_space_group_name_H-M   'P 1'
_cell_length_a   8.94152931
_cell_length_b   4.47816265
_cell_length_c   4.47802485
_cell_angle_alpha   90.00000000
_cell_angle_beta   90.00000000
_cell_angle_gamma   90.00000000
_symmetry_Int_Tables_number   1
_chemical_formula_structural   Hf3TiN4
_chemical_formula_sum   'Hf6 Ti2 N8'
_cell_volume   179.30738099
_cell_formula_units_Z   2
loop_
 _symmetry_equiv_pos_site_id
 _symmetry_equiv_pos_as_xyz
  1  'x, y, z'
loop_
 _atom_site_type_symbol
 _atom_site_label
 _atom_site_symmetry_multiplicity
 _atom_site_fract_x
 _atom_site_fract_y
 _atom_site_fract_z
 _atom_site_occupancy
  Hf  Hf0  1  0.99579467  0.00000000  0.00000000  1
  Hf  Hf1  1  0.99366563  0.50000000  0.50000000  1
  Hf  Hf2  1  0.25633437  0.00000000  0.50000000  1
  Hf  Hf3  1  0.25420533  0.50000000  0.00000000  1
  Hf  Hf4  1  0.50422690  0.00000000  0.00000000  1
  Hf  Hf5  1  0.74577310  0.50000000  0.00000000  1
  N  N6  1  0.25108974  0.50000000  0.50000000  1
  N  N7  1  0.25121560  0.00000000  0.00000000  1
  N  N8  1  0.99878440  0.50000000  0.00000000  1
  N  N9  1  0.99891026  0.00000000  0.50000000  1
  N  N10  1  0.74733183  0.50000000  0.50000000  1
  N  N11  1  0.74922948  0.00000000  0.00000000  1
  N  N12  1  0.50077052  0.50000000  0.00000000  1
  N  N13  1  0.50266817  0.00000000  0.50000000  1
  Ti  Ti14  1  0.50783291  0.50000000  0.50000000  1
  Ti  Ti15  1  0.74216709  0.00000000  0.50000000  1
