# generated using pymatgen
data_Zr3TiN4
_symmetry_space_group_name_H-M   'P 1'
_cell_length_a   9.01860227
_cell_length_b   4.52791252
_cell_length_c   4.52783519
_cell_angle_alpha   90.00000000
_cell_angle_beta   90.00000000
_cell_angle_gamma   90.00000000
_symmetry_Int_Tables_number   1
_chemical_formula_structural   Zr3TiN4
_chemical_formula_sum   'Zr6 Ti2 N8'
_cell_volume   184.89615188
_cell_formula_units_Z   2
loop_
 _symmetry_equiv_pos_site_id
 _symmetry_equiv_pos_as_xyz
  1  'x, y, z'
loop_
 _atom_site_type_symbol
 _atom_site_label
 _atom_site_symmetry_multiplicity
 _atom_site_fract_x
 _atom_site_fract_y
 _atom_site_fract_z
 _atom_site_occupancy
  Zr  Zr0  1  0.00357957  0.00000000  0.00000000  1
  Zr  Zr1  1  0.24642043  0.00000000  0.50000000  1
  Zr  Zr2  1  0.49674213  0.00000000  0.00000000  1
  Zr  Zr3  1  0.49391776  0.50000000  0.50000000  1
  Zr  Zr4  1  0.75325787  0.00000000  0.50000000  1
  Zr  Zr5  1  0.75608224  0.50000000  0.00000000  1
  Ti  Ti6  1  0.00701716  0.50000000  0.50000000  1
  Ti  Ti7  1  0.24298284  0.50000000  0.00000000  1
  N  N8  1  0.24325173  0.50000000  0.50000000  1
  N  N9  1  0.24930374  0.00000000  0.00000000  1
  N  N10  1  0.00674827  0.50000000  0.00000000  1
  N  N11  1  0.00069626  0.00000000  0.50000000  1
  N  N12  1  0.75572385  0.50000000  0.50000000  1
  N  N13  1  0.75104581  0.00000000  0.00000000  1
  N  N14  1  0.49427615  0.50000000  0.00000000  1
  N  N15  1  0.49895419  0.00000000  0.50000000  1
