# generated using pymatgen
data_ZrTaC2
_symmetry_space_group_name_H-M   'P 1'
_cell_length_a   9.17086565
_cell_length_b   4.58169385
_cell_length_c   4.58414682
_cell_angle_alpha   90.00000000
_cell_angle_beta   90.00000000
_cell_angle_gamma   90.00000000
_symmetry_Int_Tables_number   1
_chemical_formula_structural   ZrTaC2
_chemical_formula_sum   'Zr4 Ta4 C8'
_cell_volume   192.61713376
_cell_formula_units_Z   4
loop_
 _symmetry_equiv_pos_site_id
 _symmetry_equiv_pos_as_xyz
  1  'x, y, z'
loop_
 _atom_site_type_symbol
 _atom_site_label
 _atom_site_symmetry_multiplicity
 _atom_site_fract_x
 _atom_site_fract_y
 _atom_site_fract_z
 _atom_site_occupancy
  Ta  Ta0  1  -0.00006253  0.00000000  0.00000000  1
  Ta  Ta1  1  0.00080539  0.50000000  0.50000000  1
  Ta  Ta2  1  0.49960654  0.50000000  0.50000000  1
  Ta  Ta3  1  0.75054687  0.50000000  0.00000000  1
  Zr  Zr4  1  0.24873825  0.00000000  0.50000000  1
  Zr  Zr5  1  0.24915298  0.50000000  0.00000000  1
  Zr  Zr6  1  0.50060447  0.00000000  0.00000000  1
  Zr  Zr7  1  0.75094677  0.00000000  0.50000000  1
  C  C8  1  0.99513134  0.50000000  0.00000000  1
  C  C9  1  0.99859047  0.00000000  0.50000000  1
  C  C10  1  0.24796866  0.50000000  0.50000000  1
  C  C11  1  0.24297009  0.00000000  0.00000000  1
  C  C12  1  0.50587661  0.50000000  0.00000000  1
  C  C13  1  0.50145883  0.00000000  0.50000000  1
  C  C14  1  0.75189841  0.50000000  0.50000000  1
  C  C15  1  0.75576686  0.00000000  0.00000000  1
