# generated using pymatgen
data_TaNbC2
_symmetry_space_group_name_H-M   'P 1'
_cell_length_a   8.96653568
_cell_length_b   4.47898566
_cell_length_c   4.47951422
_cell_angle_alpha   90.00000000
_cell_angle_beta   90.00000000
_cell_angle_gamma   90.00000000
_symmetry_Int_Tables_number   1
_chemical_formula_structural   TaNbC2
_chemical_formula_sum   'Ta4 Nb4 C8'
_cell_volume   179.90170219
_cell_formula_units_Z   4
loop_
 _symmetry_equiv_pos_site_id
 _symmetry_equiv_pos_as_xyz
  1  'x, y, z'
loop_
 _atom_site_type_symbol
 _atom_site_label
 _atom_site_symmetry_multiplicity
 _atom_site_fract_x
 _atom_site_fract_y
 _atom_site_fract_z
 _atom_site_occupancy
  Nb  Nb0  1  0.00079933  0.00000000  0.00000000  1
  Nb  Nb1  1  0.00081911  0.50000000  0.50000000  1
  Nb  Nb2  1  0.24924747  0.50000000  0.00000000  1
  Nb  Nb3  1  0.49919149  0.00000000  0.00000000  1
  Ta  Ta4  1  0.24922513  0.00000000  0.50000000  1
  Ta  Ta5  1  0.49916893  0.50000000  0.50000000  1
  Ta  Ta6  1  0.75078423  0.00000000  0.50000000  1
  Ta  Ta7  1  0.75076370  0.50000000  0.00000000  1
  C  C8  1  0.99866288  0.50000000  0.00000000  1
  C  C9  1  0.00024266  0.00000000  0.50000000  1
  C  C10  1  0.25136080  0.50000000  0.50000000  1
  C  C11  1  0.24975634  0.00000000  0.00000000  1
  C  C12  1  0.50133177  0.50000000  0.00000000  1
  C  C13  1  0.49978386  0.00000000  0.50000000  1
  C  C14  1  0.74864479  0.50000000  0.50000000  1
  C  C15  1  0.75021752  0.00000000  0.00000000  1
