# generated using pymatgen
data_TaVC2
_symmetry_space_group_name_H-M   'P 1'
_cell_length_a   8.67288178
_cell_length_b   4.35527648
_cell_length_c   4.35855228
_cell_angle_alpha   90.00000000
_cell_angle_beta   90.00000000
_cell_angle_gamma   90.00000000
_symmetry_Int_Tables_number   1
_chemical_formula_structural   TaVC2
_chemical_formula_sum   'Ta4 V4 C8'
_cell_volume   164.63471498
_cell_formula_units_Z   4
loop_
 _symmetry_equiv_pos_site_id
 _symmetry_equiv_pos_as_xyz
  1  'x, y, z'
loop_
 _atom_site_type_symbol
 _atom_site_label
 _atom_site_symmetry_multiplicity
 _atom_site_fract_x
 _atom_site_fract_y
 _atom_site_fract_z
 _atom_site_occupancy
  Ta  Ta0  1  0.99396962  0.00000000  0.00000000  1
  Ta  Ta1  1  0.25507576  0.00000000  0.50000000  1
  Ta  Ta2  1  0.25756860  0.50000000  0.00000000  1
  Ta  Ta3  1  0.74546508  0.00000000  0.50000000  1
  V  V4  1  0.98704600  0.50000000  0.50000000  1
  V  V5  1  0.50588811  0.00000000  0.00000000  1
  V  V6  1  0.50970893  0.50000000  0.50000000  1
  V  V7  1  0.74275615  0.50000000  0.00000000  1
  C  C8  1  0.99634188  0.50000000  0.00000000  1
  C  C9  1  0.99876962  0.00000000  0.50000000  1
  C  C10  1  0.25276541  0.50000000  0.50000000  1
  C  C11  1  0.25460649  0.00000000  0.00000000  1
  C  C12  1  0.50667631  0.50000000  0.00000000  1
  C  C13  1  0.50094267  0.00000000  0.50000000  1
  C  C14  1  0.74833250  0.50000000  0.50000000  1
  C  C15  1  0.74408687  0.00000000  0.00000000  1
