# generated using pymatgen
data_TaMoC2
_symmetry_space_group_name_H-M   'P 1'
_cell_length_a   8.84694694
_cell_length_b   4.43047814
_cell_length_c   4.42754828
_cell_angle_alpha   90.00000000
_cell_angle_beta   90.00000000
_cell_angle_gamma   90.00000000
_symmetry_Int_Tables_number   1
_chemical_formula_structural   TaMoC2
_chemical_formula_sum   'Ta4 Mo4 C8'
_cell_volume   173.54309013
_cell_formula_units_Z   4
loop_
 _symmetry_equiv_pos_site_id
 _symmetry_equiv_pos_as_xyz
  1  'x, y, z'
loop_
 _atom_site_type_symbol
 _atom_site_label
 _atom_site_symmetry_multiplicity
 _atom_site_fract_x
 _atom_site_fract_y
 _atom_site_fract_z
 _atom_site_occupancy
  Mo  Mo0  1  0.99715690  0.00000000  0.00000000  1
  Mo  Mo1  1  0.50295382  0.00000000  0.00000000  1
  Mo  Mo2  1  0.50253635  0.50000000  0.50000000  1
  Mo  Mo3  1  0.74869864  0.00000000  0.50000000  1
  Ta  Ta4  1  0.99722892  0.50000000  0.50000000  1
  Ta  Ta5  1  0.25209161  0.00000000  0.50000000  1
  Ta  Ta6  1  0.25117403  0.50000000  0.00000000  1
  Ta  Ta7  1  0.74820758  0.50000000  0.00000000  1
  C  C8  1  0.99870773  0.50000000  0.00000000  1
  C  C9  1  0.00030921  0.00000000  0.50000000  1
  C  C10  1  0.24906625  0.50000000  0.50000000  1
  C  C11  1  0.25153323  0.00000000  0.00000000  1
  C  C12  1  0.50083090  0.50000000  0.00000000  1
  C  C13  1  0.50112310  0.00000000  0.50000000  1
  C  C14  1  0.74961376  0.50000000  0.50000000  1
  C  C15  1  0.74876796  0.00000000  0.00000000  1
