# generated using pymatgen
data_TaNb3C4
_symmetry_space_group_name_H-M   'P 1'
_cell_length_a   8.96985516
_cell_length_b   4.48006505
_cell_length_c   4.48006505
_cell_angle_alpha   90.00000000
_cell_angle_beta   90.00000000
_cell_angle_gamma   90.00000000
_symmetry_Int_Tables_number   1
_chemical_formula_structural   TaNb3C4
_chemical_formula_sum   'Ta2 Nb6 C8'
_cell_volume   180.03380910
_cell_formula_units_Z   2
loop_
 _symmetry_equiv_pos_site_id
 _symmetry_equiv_pos_as_xyz
  1  'x, y, z'
loop_
 _atom_site_type_symbol
 _atom_site_label
 _atom_site_symmetry_multiplicity
 _atom_site_fract_x
 _atom_site_fract_y
 _atom_site_fract_z
 _atom_site_occupancy
  Nb  Nb0  1  0.00000000  0.00000000  0.00000000  1
  Nb  Nb1  1  0.00000000  0.50000000  0.50000000  1
  Nb  Nb2  1  0.25000000  0.50000000  0.00000000  1
  Nb  Nb3  1  0.50000000  0.00000000  0.00000000  1
  Nb  Nb4  1  0.50000000  0.50000000  0.50000000  1
  Nb  Nb5  1  0.75000000  0.00000000  0.50000000  1
  Ta  Ta6  1  0.25000000  0.00000000  0.50000000  1
  Ta  Ta7  1  0.75000000  0.50000000  0.00000000  1
  C  C8  1  0.99851943  0.50000000  0.00000000  1
  C  C9  1  0.00148057  0.00000000  0.50000000  1
  C  C10  1  0.25000000  0.50000000  0.50000000  1
  C  C11  1  0.25000000  0.00000000  0.00000000  1
  C  C12  1  0.50148057  0.50000000  0.00000000  1
  C  C13  1  0.49851943  0.00000000  0.50000000  1
  C  C14  1  0.75000000  0.50000000  0.50000000  1
  C  C15  1  0.75000000  0.00000000  0.00000000  1
