# generated using pymatgen
data_TaMo3C4
_symmetry_space_group_name_H-M   'P 1'
_cell_length_a   8.79794320
_cell_length_b   4.39976097
_cell_length_c   4.39976097
_cell_angle_alpha   90.00000000
_cell_angle_beta   90.00000000
_cell_angle_gamma   90.00000000
_symmetry_Int_Tables_number   1
_chemical_formula_structural   TaMo3C4
_chemical_formula_sum   'Ta2 Mo6 C8'
_cell_volume   170.30967470
_cell_formula_units_Z   2
loop_
 _symmetry_equiv_pos_site_id
 _symmetry_equiv_pos_as_xyz
  1  'x, y, z'
loop_
 _atom_site_type_symbol
 _atom_site_label
 _atom_site_symmetry_multiplicity
 _atom_site_fract_x
 _atom_site_fract_y
 _atom_site_fract_z
 _atom_site_occupancy
  Mo  Mo0  1  0.00417910  0.00000000  0.00000000  1
  Mo  Mo1  1  0.00417910  0.50000000  0.50000000  1
  Mo  Mo2  1  0.25000000  0.00000000  0.50000000  1
  Mo  Mo3  1  0.25000000  0.50000000  0.00000000  1
  Mo  Mo4  1  0.49582090  0.00000000  0.00000000  1
  Mo  Mo5  1  0.49582090  0.50000000  0.50000000  1
  C  C6  1  0.00215659  0.50000000  0.00000000  1
  C  C7  1  0.00215659  0.00000000  0.50000000  1
  C  C8  1  0.25000000  0.50000000  0.50000000  1
  C  C9  1  0.25000000  0.00000000  0.00000000  1
  C  C10  1  0.49784341  0.50000000  0.00000000  1
  C  C11  1  0.49784341  0.00000000  0.50000000  1
  C  C12  1  0.75000000  0.50000000  0.50000000  1
  C  C13  1  0.75000000  0.00000000  0.00000000  1
  Ta  Ta14  1  0.75000000  0.00000000  0.50000000  1
  Ta  Ta15  1  0.75000000  0.50000000  0.00000000  1
