# generated using pymatgen
data_Hf3TaC4
_symmetry_space_group_name_H-M   'P 1'
_cell_length_a   9.19252747
_cell_length_b   4.59491448
_cell_length_c   4.60074999
_cell_angle_alpha   90.00000000
_cell_angle_beta   90.00000000
_cell_angle_gamma   90.00000000
_symmetry_Int_Tables_number   1
_chemical_formula_structural   Hf3TaC4
_chemical_formula_sum   'Hf6 Ta2 C8'
_cell_volume   194.33051560
_cell_formula_units_Z   2
loop_
 _symmetry_equiv_pos_site_id
 _symmetry_equiv_pos_as_xyz
  1  'x, y, z'
loop_
 _atom_site_type_symbol
 _atom_site_label
 _atom_site_symmetry_multiplicity
 _atom_site_fract_x
 _atom_site_fract_y
 _atom_site_fract_z
 _atom_site_occupancy
  Hf  Hf0  1  0.00067208  0.00000000  0.00000000  1
  Hf  Hf1  1  0.00064196  0.50000000  0.50000000  1
  Hf  Hf2  1  0.25025266  0.50000000  0.00000000  1
  Hf  Hf3  1  0.49974734  0.50000000  0.50000000  1
  Hf  Hf4  1  0.74932792  0.00000000  0.50000000  1
  Hf  Hf5  1  0.74935804  0.50000000  0.00000000  1
  Ta  Ta6  1  0.24994358  0.00000000  0.50000000  1
  Ta  Ta7  1  0.50005642  0.00000000  0.00000000  1
  C  C8  1  0.00126409  0.50000000  0.00000000  1
  C  C9  1  0.00497362  0.00000000  0.50000000  1
  C  C10  1  0.25115530  0.50000000  0.50000000  1
  C  C11  1  0.25401789  0.00000000  0.00000000  1
  C  C12  1  0.49884470  0.50000000  0.00000000  1
  C  C13  1  0.49598211  0.00000000  0.50000000  1
  C  C14  1  0.74873591  0.50000000  0.50000000  1
  C  C15  1  0.74502638  0.00000000  0.00000000  1
