# generated using pymatgen
data_Ti3NiC4
_symmetry_space_group_name_H-M   'P 1'
_cell_length_a   9.55057614
_cell_length_b   9.55057614
_cell_length_c   9.55057614
_cell_angle_alpha   18.50985221
_cell_angle_beta   18.50985221
_cell_angle_gamma   18.50985225
_symmetry_Int_Tables_number   1
_chemical_formula_structural   Ti3NiC4
_chemical_formula_sum   'Ti3 Ni1 C4'
_cell_volume   76.69703022
_cell_formula_units_Z   1
loop_
 _symmetry_equiv_pos_site_id
 _symmetry_equiv_pos_as_xyz
  1  'x, y, z'
loop_
 _atom_site_type_symbol
 _atom_site_label
 _atom_site_symmetry_multiplicity
 _atom_site_fract_x
 _atom_site_fract_y
 _atom_site_fract_z
 _atom_site_occupancy
  Ti  Ti0  1  0.74406671  0.74406671  0.74406671  1
  Ti  Ti1  1  0.25593329  0.25593329  0.25593329  1
  Ti  Ti2  1  0.50000000  0.50000000  0.50000000  1
  Ni  Ni3  1  0.00000000  0.00000000  0.00000000  1
  C  C4  1  0.12212378  0.12212378  0.12212378  1
  C  C5  1  0.87787622  0.87787622  0.87787622  1
  C  C6  1  0.63232696  0.63232696  0.63232696  1
  C  C7  1  0.36767304  0.36767304  0.36767304  1
