# generated using pymatgen
data_VWC2
_symmetry_space_group_name_H-M   'P 1'
_cell_length_a   5.77471845
_cell_length_b   5.77470583
_cell_length_c   5.52280727
_cell_angle_alpha   89.99914400
_cell_angle_beta   90.00086709
_cell_angle_gamma   120.00005485
_symmetry_Int_Tables_number   1
_chemical_formula_structural   VWC2
_chemical_formula_sum   'V4 W4 C8'
_cell_volume   159.49642740
_cell_formula_units_Z   4
loop_
 _symmetry_equiv_pos_site_id
 _symmetry_equiv_pos_as_xyz
  1  'x, y, z'
loop_
 _atom_site_type_symbol
 _atom_site_label
 _atom_site_symmetry_multiplicity
 _atom_site_fract_x
 _atom_site_fract_y
 _atom_site_fract_z
 _atom_site_occupancy
  C  C0  1  0.33311432  0.16688663  0.24852524  1
  C  C1  1  0.33380450  0.66723321  0.24633355  1
  C  C2  1  0.83276727  0.16619719  0.24633390  1
  C  C3  1  0.83277714  0.66722231  0.24632398  1
  C  C4  1  0.33313133  0.16686961  0.75147480  1
  C  C5  1  0.33382483  0.66721338  0.75367739  1
  C  C6  1  0.83278711  0.16617686  0.75367704  1
  C  C7  1  0.83279750  0.66720196  0.75365409  1
  V  V8  1  0.00352295  0.00206997  0.99999813  1
  V  V9  1  0.49792196  0.00207852  0.00000371  1
  V  V10  1  0.49793071  0.49647822  0.99999813  1
  V  V11  1  0.99979243  0.50020751  0.50000001  1
  W  W12  1  0.99979309  0.50020442  0.99999999  1
  W  W13  1  0.99887914  0.99975199  0.49999845  1
  W  W14  1  0.50024270  0.99975379  0.50000312  1
  W  W15  1  0.50024634  0.50112112  0.49999847  1
