# generated using pymatgen
data_NbWC2
_symmetry_space_group_name_H-M   'P 1'
_cell_length_a   5.96547696
_cell_length_b   5.96547697
_cell_length_c   5.73585249
_cell_angle_alpha   89.99927130
_cell_angle_beta   90.00072710
_cell_angle_gamma   119.99993107
_symmetry_Int_Tables_number   1
_chemical_formula_structural   NbWC2
_chemical_formula_sum   'Nb4 W4 C8'
_cell_volume   176.77435180
_cell_formula_units_Z   4
loop_
 _symmetry_equiv_pos_site_id
 _symmetry_equiv_pos_as_xyz
  1  'x, y, z'
loop_
 _atom_site_type_symbol
 _atom_site_label
 _atom_site_symmetry_multiplicity
 _atom_site_fract_x
 _atom_site_fract_y
 _atom_site_fract_z
 _atom_site_occupancy
  C  C0  1  0.33310778  0.16689219  0.26830369  1
  C  C1  1  0.33391578  0.66729081  0.25067074  1
  C  C2  1  0.83270919  0.16608422  0.25067080  1
  C  C3  1  0.83271995  0.66728002  0.25068041  1
  C  C4  1  0.33313013  0.16686988  0.73169640  1
  C  C5  1  0.33394020  0.66726810  0.74932274  1
  C  C6  1  0.83273194  0.16605982  0.74932270  1
  C  C7  1  0.83274444  0.66725557  0.74933254  1
  Nb  Nb8  1  0.00086944  0.00074540  0.00000486  1
  Nb  Nb9  1  0.49924703  0.00075301  0.99999044  1
  Nb  Nb10  1  0.49925460  0.49913053  0.00000486  1
  Nb  Nb11  1  0.99979558  0.50020443  0.49999995  1
  W  W12  1  0.99979588  0.50020411  0.00000000  1
  W  W13  1  0.99984813  0.00023417  0.50000468  1
  W  W14  1  0.49975744  0.00024255  0.49999064  1
  W  W15  1  0.49976583  0.50015187  0.50000457  1
