# generated using pymatgen
data_TiCrCN
_symmetry_space_group_name_H-M   'P 1'
_cell_length_a   8.36425990
_cell_length_b   4.17409106
_cell_length_c   4.18350583
_cell_angle_alpha   90.00000000
_cell_angle_beta   90.00000000
_cell_angle_gamma   90.00000000
_symmetry_Int_Tables_number   1
_chemical_formula_structural   TiCrCN
_chemical_formula_sum   'Ti4 Cr4 C4 N4'
_cell_volume   146.05950242
_cell_formula_units_Z   4
loop_
 _symmetry_equiv_pos_site_id
 _symmetry_equiv_pos_as_xyz
  1  'x, y, z'
loop_
 _atom_site_type_symbol
 _atom_site_label
 _atom_site_symmetry_multiplicity
 _atom_site_fract_x
 _atom_site_fract_y
 _atom_site_fract_z
 _atom_site_occupancy
  Cr  Cr0  1  0.99918731  0.00000000  0.00000000  1
  Cr  Cr1  1  0.99247883  0.50000000  0.50000000  1
  Cr  Cr2  1  0.49430868  0.00000000  0.00000000  1
  Cr  Cr3  1  0.77109514  0.00000000  0.50000000  1
  Ti  Ti4  1  0.24597953  0.00000000  0.50000000  1
  Ti  Ti5  1  0.24650828  0.50000000  0.00000000  1
  Ti  Ti6  1  0.50567851  0.50000000  0.50000000  1
  Ti  Ti7  1  0.75417809  0.50000000  0.00000000  1
  N  N8  1  0.24790126  0.50000000  0.50000000  1
  N  N9  1  0.99804611  0.50000000  0.00000000  1
  N  N10  1  0.75170151  0.50000000  0.50000000  1
  N  N11  1  0.49967080  0.00000000  0.50000000  1
  C  C12  1  0.24652458  0.00000000  0.00000000  1
  C  C13  1  0.99588585  0.00000000  0.50000000  1
  C  C14  1  0.75082076  0.00000000  0.00000000  1
  C  C15  1  0.50003476  0.50000000  0.00000000  1
