# generated using pymatgen
data_TiVCN
_symmetry_space_group_name_H-M   'P 1'
_cell_length_a   8.46251419
_cell_length_b   4.22430165
_cell_length_c   4.19320235
_cell_angle_alpha   90.00000000
_cell_angle_beta   90.00000000
_cell_angle_gamma   90.00000000
_symmetry_Int_Tables_number   1
_chemical_formula_structural   TiVCN
_chemical_formula_sum   'Ti4 V4 C4 N4'
_cell_volume   149.89948932
_cell_formula_units_Z   4
loop_
 _symmetry_equiv_pos_site_id
 _symmetry_equiv_pos_as_xyz
  1  'x, y, z'
loop_
 _atom_site_type_symbol
 _atom_site_label
 _atom_site_symmetry_multiplicity
 _atom_site_fract_x
 _atom_site_fract_y
 _atom_site_fract_z
 _atom_site_occupancy
  V  V0  1  0.00070830  0.00000000  0.00000000  1
  V  V1  1  0.23673004  0.00000000  0.50000000  1
  V  V2  1  0.25520738  0.50000000  0.00000000  1
  V  V3  1  0.76508323  0.00000000  0.50000000  1
  Ti  Ti4  1  0.00331488  0.50000000  0.50000000  1
  Ti  Ti5  1  0.49774086  0.00000000  0.00000000  1
  Ti  Ti6  1  0.49517162  0.50000000  0.50000000  1
  Ti  Ti7  1  0.74765012  0.50000000  0.00000000  1
  N  N8  1  0.24834828  0.50000000  0.50000000  1
  N  N9  1  0.00120889  0.50000000  0.00000000  1
  N  N10  1  0.75222148  0.50000000  0.50000000  1
  N  N11  1  0.49755567  0.00000000  0.50000000  1
  C  C12  1  0.24683808  0.00000000  0.00000000  1
  C  C13  1  0.00045025  0.00000000  0.50000000  1
  C  C14  1  0.75314261  0.00000000  0.00000000  1
  C  C15  1  0.49862829  0.50000000  0.00000000  1
