# generated using pymatgen
data_TaTiCN
_symmetry_space_group_name_H-M   'P 1'
_cell_length_a   8.83070427
_cell_length_b   4.36862706
_cell_length_c   4.35768552
_cell_angle_alpha   90.00000000
_cell_angle_beta   90.00000000
_cell_angle_gamma   90.00000000
_symmetry_Int_Tables_number   1
_chemical_formula_structural   TaTiCN
_chemical_formula_sum   'Ta4 Ti4 C4 N4'
_cell_volume   168.11102571
_cell_formula_units_Z   4
loop_
 _symmetry_equiv_pos_site_id
 _symmetry_equiv_pos_as_xyz
  1  'x, y, z'
loop_
 _atom_site_type_symbol
 _atom_site_label
 _atom_site_symmetry_multiplicity
 _atom_site_fract_x
 _atom_site_fract_y
 _atom_site_fract_z
 _atom_site_occupancy
  Ti  Ti0  1  0.00353608  0.00000000  0.00000000  1
  Ti  Ti1  1  0.24528376  0.00000000  0.50000000  1
  Ti  Ti2  1  0.49739029  0.00000000  0.00000000  1
  Ti  Ti3  1  0.49526166  0.50000000  0.50000000  1
  Ta  Ta4  1  0.00357763  0.50000000  0.50000000  1
  Ta  Ta5  1  0.25924072  0.50000000  0.00000000  1
  Ta  Ta6  1  0.75603778  0.00000000  0.50000000  1
  Ta  Ta7  1  0.73822689  0.50000000  0.00000000  1
  N  N8  1  0.25258695  0.50000000  0.50000000  1
  N  N9  1  0.00036058  0.50000000  0.00000000  1
  N  N10  1  0.74640945  0.50000000  0.50000000  1
  N  N11  1  0.49887434  0.00000000  0.50000000  1
  C  C12  1  0.25028885  0.00000000  0.00000000  1
  C  C13  1  0.00394429  0.00000000  0.50000000  1
  C  C14  1  0.74979230  0.00000000  0.00000000  1
  C  C15  1  0.49918843  0.50000000  0.00000000  1
