# generated using pymatgen
data_MoWC2
_symmetry_space_group_name_H-M   'P 1'
_cell_length_a   5.84349977
_cell_length_b   5.84350346
_cell_length_c   5.67737376
_cell_angle_alpha   89.99974753
_cell_angle_beta   90.00026320
_cell_angle_gamma   120.00002637
_symmetry_Int_Tables_number   1
_chemical_formula_structural   MoWC2
_chemical_formula_sum   'Mo4 W4 C8'
_cell_volume   167.88981069
_cell_formula_units_Z   4
loop_
 _symmetry_equiv_pos_site_id
 _symmetry_equiv_pos_as_xyz
  1  'x, y, z'
loop_
 _atom_site_type_symbol
 _atom_site_label
 _atom_site_symmetry_multiplicity
 _atom_site_fract_x
 _atom_site_fract_y
 _atom_site_fract_z
 _atom_site_occupancy
  C  C0  1  0.33310564  0.16689434  0.25071286  1
  C  C1  1  0.33302987  0.66684926  0.24940657  1
  C  C2  1  0.83315081  0.16697014  0.24940650  1
  C  C3  1  0.83316574  0.66683434  0.24940642  1
  C  C4  1  0.33313064  0.16686933  0.74928735  1
  C  C5  1  0.33305296  0.66682477  0.75059415  1
  C  C6  1  0.83317520  0.16694696  0.75059420  1
  C  C7  1  0.83318913  0.66681092  0.75059248  1
  Mo  Mo8  1  0.00096551  0.00079256  0.99999947  1
  Mo  Mo9  1  0.49919757  0.00080162  0.99999893  1
  Mo  Mo10  1  0.49920719  0.49903482  0.99999944  1
  Mo  Mo11  1  0.99979596  0.50020491  0.50000081  1
  W  W12  1  0.99979637  0.50020383  0.99999983  1
  W  W13  1  0.99860155  0.99961075  0.50000047  1
  W  W14  1  0.50038005  0.99961953  0.50000005  1
  W  W15  1  0.50038912  0.50139862  0.50000049  1
