# generated using pymatgen
data_TiMoCN
_symmetry_space_group_name_H-M   'P 1'
_cell_length_a   8.64011495
_cell_length_b   4.30166688
_cell_length_c   4.33767258
_cell_angle_alpha   90.00000000
_cell_angle_beta   90.00000000
_cell_angle_gamma   90.00000000
_symmetry_Int_Tables_number   1
_chemical_formula_structural   TiMoCN
_chemical_formula_sum   'Ti4 Mo4 C4 N4'
_cell_volume   161.21782705
_cell_formula_units_Z   4
loop_
 _symmetry_equiv_pos_site_id
 _symmetry_equiv_pos_as_xyz
  1  'x, y, z'
loop_
 _atom_site_type_symbol
 _atom_site_label
 _atom_site_symmetry_multiplicity
 _atom_site_fract_x
 _atom_site_fract_y
 _atom_site_fract_z
 _atom_site_occupancy
  Mo  Mo0  1  0.99551316  0.00000000  0.00000000  1
  Mo  Mo1  1  0.99679646  0.50000000  0.50000000  1
  Mo  Mo2  1  0.26561273  0.50000000  0.00000000  1
  Mo  Mo3  1  0.50277122  0.00000000  0.00000000  1
  Ti  Ti4  1  0.24515328  0.00000000  0.50000000  1
  Ti  Ti5  1  0.50126293  0.50000000  0.50000000  1
  Ti  Ti6  1  0.75290910  0.00000000  0.50000000  1
  Ti  Ti7  1  0.74679910  0.50000000  0.00000000  1
  N  N8  1  0.25396735  0.50000000  0.50000000  1
  N  N9  1  0.99512973  0.50000000  0.00000000  1
  N  N10  1  0.74497272  0.50000000  0.50000000  1
  N  N11  1  0.49820898  0.00000000  0.50000000  1
  C  C12  1  0.24794962  0.00000000  0.00000000  1
  C  C13  1  0.99940936  0.00000000  0.50000000  1
  C  C14  1  0.74994621  0.00000000  0.00000000  1
  C  C15  1  0.50359805  0.50000000  0.00000000  1
