# generated using pymatgen
data_CrWC2
_symmetry_space_group_name_H-M   'P 1'
_cell_length_a   5.67364185
_cell_length_b   5.67364185
_cell_length_c   5.47305879
_cell_angle_alpha   89.99989433
_cell_angle_beta   90.00010563
_cell_angle_gamma   119.99981746
_symmetry_Int_Tables_number   1
_chemical_formula_structural   CrWC2
_chemical_formula_sum   'Cr4 W4 C8'
_cell_volume   152.57570254
_cell_formula_units_Z   4
loop_
 _symmetry_equiv_pos_site_id
 _symmetry_equiv_pos_as_xyz
  1  'x, y, z'
loop_
 _atom_site_type_symbol
 _atom_site_label
 _atom_site_symmetry_multiplicity
 _atom_site_fract_x
 _atom_site_fract_y
 _atom_site_fract_z
 _atom_site_occupancy
  C  C0  1  0.33311606  0.16688394  0.23434659  1
  C  C1  1  0.33446298  0.66755556  0.24424935  1
  C  C2  1  0.83244444  0.16553702  0.24424935  1
  C  C3  1  0.83244857  0.66755143  0.24423104  1
  C  C4  1  0.33312573  0.16687427  0.76565347  1
  C  C5  1  0.33447928  0.66754377  0.75576375  1
  C  C6  1  0.83245623  0.16552072  0.75576375  1
  C  C7  1  0.83246493  0.66753507  0.75574273  1
  Cr  Cr8  1  0.00265204  0.00163551  0.99999745  1
  Cr  Cr9  1  0.49835670  0.00164330  0.00000524  1
  Cr  Cr10  1  0.49836449  0.49734796  0.99999745  1
  Cr  Cr11  1  0.99979375  0.50020625  0.49999981  1
  W  W12  1  0.99979472  0.50020528  0.00000009  1
  W  W13  1  0.99816045  0.99939256  0.49999704  1
  W  W14  1  0.50060552  0.99939448  0.50000587  1
  W  W15  1  0.50060744  0.50183955  0.49999704  1
