# generated using pymatgen
data_HfTiCN
_symmetry_space_group_name_H-M   'P 1'
_cell_length_a   8.91531835
_cell_length_b   4.44184632
_cell_length_c   4.48074184
_cell_angle_alpha   90.00000000
_cell_angle_beta   90.00000000
_cell_angle_gamma   90.00000000
_symmetry_Int_Tables_number   1
_chemical_formula_structural   HfTiCN
_chemical_formula_sum   'Hf4 Ti4 C4 N4'
_cell_volume   177.43950076
_cell_formula_units_Z   4
loop_
 _symmetry_equiv_pos_site_id
 _symmetry_equiv_pos_as_xyz
  1  'x, y, z'
loop_
 _atom_site_type_symbol
 _atom_site_label
 _atom_site_symmetry_multiplicity
 _atom_site_fract_x
 _atom_site_fract_y
 _atom_site_fract_z
 _atom_site_occupancy
  Ti  Ti0  1  0.00710554  0.00000000  0.00000000  1
  Ti  Ti1  1  0.25045943  0.50000000  0.00000000  1
  Ti  Ti2  1  0.49580825  0.00000000  0.00000000  1
  Ti  Ti3  1  0.74346142  0.00000000  0.50000000  1
  Hf  Hf4  1  0.00058151  0.50000000  0.50000000  1
  Hf  Hf5  1  0.25195918  0.00000000  0.50000000  1
  Hf  Hf6  1  0.49938257  0.50000000  0.50000000  1
  Hf  Hf7  1  0.74946725  0.50000000  0.00000000  1
  N  N8  1  0.24802171  0.50000000  0.50000000  1
  N  N9  1  0.99701169  0.00000000  0.50000000  1
  N  N10  1  0.75128236  0.50000000  0.50000000  1
  N  N11  1  0.75189436  0.00000000  0.00000000  1
  C  C12  1  0.24778825  0.00000000  0.00000000  1
  C  C13  1  0.00304602  0.50000000  0.00000000  1
  C  C14  1  0.49702744  0.50000000  0.00000000  1
  C  C15  1  0.50570304  0.00000000  0.50000000  1
