# generated using pymatgen
data_HfWC2
_symmetry_space_group_name_H-M   'P 1'
_cell_length_a   8.96703779
_cell_length_b   4.50774183
_cell_length_c   4.50774183
_cell_angle_alpha   90.00000000
_cell_angle_beta   90.00000000
_cell_angle_gamma   90.00000000
_symmetry_Int_Tables_number   1
_chemical_formula_structural   HfWC2
_chemical_formula_sum   'Hf4 W4 C8'
_cell_volume   182.20784423
_cell_formula_units_Z   4
loop_
 _symmetry_equiv_pos_site_id
 _symmetry_equiv_pos_as_xyz
  1  'x, y, z'
loop_
 _atom_site_type_symbol
 _atom_site_label
 _atom_site_symmetry_multiplicity
 _atom_site_fract_x
 _atom_site_fract_y
 _atom_site_fract_z
 _atom_site_occupancy
  W  W0  1  0.00000000  0.00000000  0.00000000  1
  W  W1  1  0.00000000  0.50000000  0.50000000  1
  W  W2  1  0.24629085  0.00000000  0.50000000  1
  W  W3  1  0.75370915  0.50000000  -0.00000000  1
  Hf  Hf4  1  0.24682346  0.50000000  -0.00000000  1
  Hf  Hf5  1  0.50000000  0.00000000  0.00000000  1
  Hf  Hf6  1  0.50000000  0.50000000  0.50000000  1
  Hf  Hf7  1  0.75317654  0.00000000  0.50000000  1
  C  C8  1  0.24353809  0.50000000  0.50000000  1
  C  C9  1  0.24353809  0.00000000  0.00000000  1
  C  C10  1  0.99817695  0.50000000  0.00000000  1
  C  C11  1  0.00182305  0.00000000  0.50000000  1
  C  C12  1  0.75646191  0.50000000  0.50000000  1
  C  C13  1  0.75646191  0.00000000  0.00000000  1
  C  C14  1  0.50127007  0.50000000  -0.00000000  1
  C  C15  1  0.49872993  0.00000000  0.50000000  1
