# generated using pymatgen
data_ZrTiCN
_symmetry_space_group_name_H-M   'P 1'
_cell_length_a   9.01174331
_cell_length_b   4.49656432
_cell_length_c   4.49892722
_cell_angle_alpha   90.00000000
_cell_angle_beta   90.00000000
_cell_angle_gamma   90.00000000
_symmetry_Int_Tables_number   1
_chemical_formula_structural   ZrTiCN
_chemical_formula_sum   'Zr4 Ti4 C4 N4'
_cell_volume   182.30500436
_cell_formula_units_Z   4
loop_
 _symmetry_equiv_pos_site_id
 _symmetry_equiv_pos_as_xyz
  1  'x, y, z'
loop_
 _atom_site_type_symbol
 _atom_site_label
 _atom_site_symmetry_multiplicity
 _atom_site_fract_x
 _atom_site_fract_y
 _atom_site_fract_z
 _atom_site_occupancy
  Zr  Zr0  1  0.00461222  0.00000000  0.00000000  1
  Zr  Zr1  1  0.00838748  0.50000000  0.50000000  1
  Zr  Zr2  1  0.49725870  0.00000000  0.00000000  1
  Zr  Zr3  1  0.74619460  0.50000000  0.00000000  1
  Ti  Ti4  1  0.26082978  0.00000000  0.50000000  1
  Ti  Ti5  1  0.25488853  0.50000000  0.00000000  1
  Ti  Ti6  1  0.49208368  0.50000000  0.50000000  1
  Ti  Ti7  1  0.73524054  0.00000000  0.50000000  1
  N  N8  1  0.25676328  0.50000000  0.50000000  1
  N  N9  1  0.99968405  0.00000000  0.50000000  1
  N  N10  1  0.74693405  0.50000000  0.50000000  1
  N  N11  1  0.74916365  0.00000000  0.00000000  1
  C  C12  1  0.25068871  0.00000000  0.00000000  1
  C  C13  1  0.00468024  0.50000000  0.00000000  1
  C  C14  1  0.49281165  0.50000000  0.00000000  1
  C  C15  1  0.49977884  0.00000000  0.50000000  1
