# generated using pymatgen
data_ZrWC2
_symmetry_space_group_name_H-M   'P 1'
_cell_length_a   9.01588030
_cell_length_b   4.53844947
_cell_length_c   4.53844947
_cell_angle_alpha   90.00000000
_cell_angle_beta   90.00000000
_cell_angle_gamma   90.00000000
_symmetry_Int_Tables_number   1
_chemical_formula_structural   ZrWC2
_chemical_formula_sum   'Zr4 W4 C8'
_cell_volume   185.70480718
_cell_formula_units_Z   4
loop_
 _symmetry_equiv_pos_site_id
 _symmetry_equiv_pos_as_xyz
  1  'x, y, z'
loop_
 _atom_site_type_symbol
 _atom_site_label
 _atom_site_symmetry_multiplicity
 _atom_site_fract_x
 _atom_site_fract_y
 _atom_site_fract_z
 _atom_site_occupancy
  W  W0  1  -0.00000000  0.00000000  0.00000000  1
  W  W1  1  -0.00000000  0.50000000  0.50000000  1
  W  W2  1  0.24800670  0.00000000  0.50000000  1
  W  W3  1  0.75199330  0.50000000  0.00000000  1
  Zr  Zr4  1  0.24567521  0.50000000  0.00000000  1
  Zr  Zr5  1  0.50000000  0.00000000  0.00000000  1
  Zr  Zr6  1  0.50000000  0.50000000  0.50000000  1
  Zr  Zr7  1  0.75432479  0.00000000  0.50000000  1
  C  C8  1  0.24115045  0.50000000  0.50000000  1
  C  C9  1  0.24115045  0.00000000  0.00000000  1
  C  C10  1  0.99554012  0.50000000  -0.00000000  1
  C  C11  1  0.00445988  0.00000000  0.50000000  1
  C  C12  1  0.75884955  0.50000000  0.50000000  1
  C  C13  1  0.75884955  0.00000000  -0.00000000  1
  C  C14  1  0.50431976  0.50000000  0.00000000  1
  C  C15  1  0.49568024  0.00000000  0.50000000  1
