# generated using pymatgen
data_Zr2BC3
_symmetry_space_group_name_H-M   'P 1'
_cell_length_a   5.66840196
_cell_length_b   6.90197655
_cell_length_c   6.73143983
_cell_angle_alpha   90.00000000
_cell_angle_beta   90.00000000
_cell_angle_gamma   114.24480212
_symmetry_Int_Tables_number   1
_chemical_formula_structural   Zr2BC3
_chemical_formula_sum   'Zr8 B4 C12'
_cell_volume   240.12719167
_cell_formula_units_Z   4
loop_
 _symmetry_equiv_pos_site_id
 _symmetry_equiv_pos_as_xyz
  1  'x, y, z'
loop_
 _atom_site_type_symbol
 _atom_site_label
 _atom_site_symmetry_multiplicity
 _atom_site_fract_x
 _atom_site_fract_y
 _atom_site_fract_z
 _atom_site_occupancy
  Zr  Zr0  1  0.99546351  0.99092702  0.99547495  1
  Zr  Zr1  1  0.99546351  0.99092702  0.50452505  1
  Zr  Zr2  1  0.99656231  0.49897911  0.97695352  1
  Zr  Zr3  1  0.99656231  0.49897911  0.52304648  1
  Zr  Zr4  1  0.49228022  0.98456043  0.01560269  1
  Zr  Zr5  1  0.49228022  0.98456043  0.48439731  1
  Zr  Zr6  1  0.50241680  0.49897911  0.97695352  1
  Zr  Zr7  1  0.50241680  0.49897911  0.52304648  1
  C  C8  1  0.18809401  0.37618801  0.25000000  1
  C  C9  1  0.37776116  0.24825401  0.25000000  1
  C  C10  1  0.35306696  0.19672445  0.75000000  1
  C  C11  1  0.13487098  0.76730009  0.25000000  1
  C  C12  1  0.14534171  0.80268115  0.75000000  1
  C  C13  1  0.69049803  0.38099605  0.25000000  1
  C  C14  1  0.87049284  0.24825401  0.25000000  1
  C  C15  1  0.63635386  0.27270771  0.75000000  1
  C  C16  1  0.84365748  0.19672445  0.75000000  1
  C  C17  1  0.63242911  0.76730009  0.25000000  1
  C  C18  1  0.65733945  0.80268115  0.75000000  1
  C  C19  1  0.85027500  0.70055002  0.75000000  1
  B  B20  1  0.14711085  0.29422169  0.75000000  1
  B  B21  1  0.32222378  0.64444758  0.25000000  1
  B  B22  1  0.35163089  0.70326178  0.75000000  1
  B  B23  1  0.82540820  0.65081642  0.25000000  1
