# generated using pymatgen
data_Zr2B3C
_symmetry_space_group_name_H-M   'P 1'
_cell_length_a   6.30364710
_cell_length_b   6.30999184
_cell_length_c   7.11249501
_cell_angle_alpha   90.00000000
_cell_angle_beta   90.00000000
_cell_angle_gamma   121.68787376
_symmetry_Int_Tables_number   1
_chemical_formula_structural   Zr2B3C
_chemical_formula_sum   'Zr8 B12 C4'
_cell_volume   240.73130555
_cell_formula_units_Z   4
loop_
 _symmetry_equiv_pos_site_id
 _symmetry_equiv_pos_as_xyz
  1  'x, y, z'
loop_
 _atom_site_type_symbol
 _atom_site_label
 _atom_site_symmetry_multiplicity
 _atom_site_fract_x
 _atom_site_fract_y
 _atom_site_fract_z
 _atom_site_occupancy
  Zr  Zr0  1  0.99715123  0.00295718  0.00204883  1
  Zr  Zr1  1  0.99715123  0.00295718  0.49795117  1
  Zr  Zr2  1  0.00622782  0.50559414  0.00682968  1
  Zr  Zr3  1  0.00622782  0.50559414  0.49317032  1
  Zr  Zr4  1  0.49422121  0.99453294  0.00328425  1
  Zr  Zr5  1  0.49422121  0.99453294  0.49671575  1
  Zr  Zr6  1  0.50420564  0.49764765  0.99850326  1
  Zr  Zr7  1  0.50420564  0.49764765  0.50149674  1
  B  B8  1  0.17585719  0.34045828  0.25000000  1
  B  B9  1  0.32926066  0.16213039  0.25000000  1
  B  B10  1  0.16602501  0.33422424  0.75000000  1
  B  B11  1  0.33184262  0.16580987  0.75000000  1
  B  B12  1  0.15772760  0.83014208  0.75000000  1
  B  B13  1  0.33283096  0.66377400  0.75000000  1
  B  B14  1  0.82930046  0.16938917  0.25000000  1
  B  B15  1  0.67168872  0.33873040  0.75000000  1
  B  B16  1  0.83484544  0.16956165  0.75000000  1
  B  B17  1  0.65840716  0.82483153  0.25000000  1
  B  B18  1  0.83839913  0.67277467  0.25000000  1
  B  B19  1  0.66674583  0.83269917  0.75000000  1
  C  C20  1  0.14128358  0.85871563  0.25000000  1
  C  C21  1  0.36089097  0.63807635  0.25000000  1
  C  C22  1  0.66582852  0.33168238  0.25000000  1
  C  C23  1  0.83545435  0.66553636  0.75000000  1
