# generated using pymatgen
data_ZrBC
_symmetry_space_group_name_H-M   'P 1'
_cell_length_a   6.68901886
_cell_length_b   5.87185307
_cell_length_c   6.80552812
_cell_angle_alpha   90.00000000
_cell_angle_beta   90.00000000
_cell_angle_gamma   114.34464643
_symmetry_Int_Tables_number   1
_chemical_formula_structural   ZrBC
_chemical_formula_sum   'Zr8 B8 C8'
_cell_volume   243.53257476
_cell_formula_units_Z   8
loop_
 _symmetry_equiv_pos_site_id
 _symmetry_equiv_pos_as_xyz
  1  'x, y, z'
loop_
 _atom_site_type_symbol
 _atom_site_label
 _atom_site_symmetry_multiplicity
 _atom_site_fract_x
 _atom_site_fract_y
 _atom_site_fract_z
 _atom_site_occupancy
  Zr  Zr0  1  0.98967918  0.99931926  0.98060342  1
  Zr  Zr1  1  0.98967918  0.99931926  0.51939658  1
  Zr  Zr2  1  0.00844144  0.50056351  0.98491469  1
  Zr  Zr3  1  0.00844144  0.50056351  0.51508531  1
  Zr  Zr4  1  0.48838665  0.99828296  0.01470895  1
  Zr  Zr5  1  0.48838665  0.99828296  0.48529105  1
  Zr  Zr6  1  0.51346626  0.50601373  0.01262740  1
  Zr  Zr7  1  0.51346626  0.50601373  0.48737260  1
  B  B8  1  0.15225382  0.31151201  0.25000000  1
  B  B9  1  0.27608086  0.63985651  0.25000000  1
  B  B10  1  0.19865763  0.85961531  0.75000000  1
  B  B11  1  0.34704194  0.67023492  0.75000000  1
  B  B12  1  0.84459874  0.17652297  0.25000000  1
  B  B13  1  0.85375219  0.68176265  0.25000000  1
  B  B14  1  0.65174077  0.83126066  0.75000000  1
  B  B15  1  0.80373391  0.64365936  0.75000000  1
  C  C16  1  0.25837931  0.10615369  0.25000000  1
  C  C17  1  0.22870873  0.36813120  0.75000000  1
  C  C18  1  0.29363709  0.15487336  0.75000000  1
  C  C19  1  0.13786619  0.81565383  0.25000000  1
  C  C20  1  0.73368424  0.37747941  0.25000000  1
  C  C21  1  0.71439059  0.35130645  0.75000000  1
  C  C22  1  0.77391148  0.13392174  0.75000000  1
  C  C23  1  0.73161548  0.86969702  0.25000000  1
