# generated using pymatgen
data_HfBC
_symmetry_space_group_name_H-M   'P 1'
_cell_length_a   6.96617060
_cell_length_b   6.46263515
_cell_length_c   6.62305232
_cell_angle_alpha   90.00000000
_cell_angle_beta   90.00000000
_cell_angle_gamma   126.11406332
_symmetry_Int_Tables_number   1
_chemical_formula_structural   HfBC
_chemical_formula_sum   'Hf8 B8 C8'
_cell_volume   240.87409788
_cell_formula_units_Z   8
loop_
 _symmetry_equiv_pos_site_id
 _symmetry_equiv_pos_as_xyz
  1  'x, y, z'
loop_
 _atom_site_type_symbol
 _atom_site_label
 _atom_site_symmetry_multiplicity
 _atom_site_fract_x
 _atom_site_fract_y
 _atom_site_fract_z
 _atom_site_occupancy
  Hf  Hf0  1  0.97429120  0.97147708  0.99542191  1
  Hf  Hf1  1  0.97429120  0.97147708  0.50457809  1
  Hf  Hf2  1  0.01368591  0.51054584  0.02059673  1
  Hf  Hf3  1  0.01368591  0.51054584  0.47940327  1
  Hf  Hf4  1  0.51233172  0.02042302  0.99238574  1
  Hf  Hf5  1  0.51233172  0.02042302  0.50761426  1
  Hf  Hf6  1  0.46832570  0.48535769  0.98965694  1
  Hf  Hf7  1  0.46832570  0.48535769  0.51034306  1
  B  B8  1  0.16242711  0.32047143  0.25000000  1
  B  B9  1  0.33421869  0.14166913  0.25000000  1
  B  B10  1  0.35562872  0.67548521  0.25000000  1
  B  B11  1  0.17260876  0.83600063  0.75000000  1
  B  B12  1  0.64209592  0.36232929  0.25000000  1
  B  B13  1  0.84403206  0.14524296  0.25000000  1
  B  B14  1  0.85456779  0.18418665  0.75000000  1
  B  B15  1  0.63535497  0.84255720  0.75000000  1
  C  C16  1  0.14564270  0.38421757  0.75000000  1
  C  C17  1  0.30244076  0.12563003  0.75000000  1
  C  C18  1  0.23229497  0.84225803  0.25000000  1
  C  C19  1  0.31286231  0.67305786  0.75000000  1
  C  C20  1  0.74797802  0.35329546  0.75000000  1
  C  C21  1  0.63754830  0.85450604  0.25000000  1
  C  C22  1  0.79935059  0.65205557  0.25000000  1
  C  C23  1  0.88367927  0.63142968  0.75000000  1
