# generated using pymatgen
data_Hf2BC3
_symmetry_space_group_name_H-M   'P 1'
_cell_length_a   6.65644952
_cell_length_b   5.61033686
_cell_length_c   6.77156651
_cell_angle_alpha   90.00000000
_cell_angle_beta   90.00000000
_cell_angle_gamma   114.92434136
_symmetry_Int_Tables_number   1
_chemical_formula_structural   Hf2BC3
_chemical_formula_sum   'Hf8 B4 C12'
_cell_volume   229.33133526
_cell_formula_units_Z   4
loop_
 _symmetry_equiv_pos_site_id
 _symmetry_equiv_pos_as_xyz
  1  'x, y, z'
loop_
 _atom_site_type_symbol
 _atom_site_label
 _atom_site_symmetry_multiplicity
 _atom_site_fract_x
 _atom_site_fract_y
 _atom_site_fract_z
 _atom_site_occupancy
  Hf  Hf0  1  0.99542071  0.99771036  0.03100558  1
  Hf  Hf1  1  0.99542071  0.99771036  0.46899442  1
  Hf  Hf2  1  0.99542071  0.49771036  0.03100558  1
  Hf  Hf3  1  0.99542071  0.49771036  0.46899442  1
  Hf  Hf4  1  0.49542071  0.99771036  0.96899442  1
  Hf  Hf5  1  0.49542071  0.99771036  0.53100558  1
  Hf  Hf6  1  0.49542071  0.49771036  0.96899442  1
  Hf  Hf7  1  0.49542071  0.49771036  0.53100558  1
  C  C8  1  0.23798286  0.36899143  0.25000000  1
  C  C9  1  0.36999281  0.18499641  0.25000000  1
  C  C10  1  0.26235764  0.13117883  0.75000000  1
  C  C11  1  0.23798286  0.86899143  0.25000000  1
  C  C12  1  0.36999281  0.68499641  0.25000000  1
  C  C13  1  0.26235764  0.63117883  0.75000000  1
  C  C14  1  0.76235764  0.13117883  0.25000000  1
  C  C15  1  0.73798286  0.36899143  0.75000000  1
  C  C16  1  0.86999281  0.18499641  0.75000000  1
  C  C17  1  0.76235764  0.63117883  0.25000000  1
  C  C18  1  0.73798286  0.86899143  0.75000000  1
  C  C19  1  0.86999281  0.68499641  0.75000000  1
  B  B20  1  0.13882526  0.31941263  0.75000000  1
  B  B21  1  0.13882526  0.81941263  0.75000000  1
  B  B22  1  0.63882526  0.31941263  0.25000000  1
  B  B23  1  0.63882526  0.81941263  0.25000000  1
