# generated using pymatgen
data_TiWCN
_symmetry_space_group_name_H-M   'P 1'
_cell_length_a   8.63520492
_cell_length_b   4.33694183
_cell_length_c   4.33694183
_cell_angle_alpha   90.00000000
_cell_angle_beta   90.00000000
_cell_angle_gamma   90.00000000
_symmetry_Int_Tables_number   1
_chemical_formula_structural   TiWCN
_chemical_formula_sum   'Ti4 W4 C4 N4'
_cell_volume   162.42012577
_cell_formula_units_Z   4
loop_
 _symmetry_equiv_pos_site_id
 _symmetry_equiv_pos_as_xyz
  1  'x, y, z'
loop_
 _atom_site_type_symbol
 _atom_site_label
 _atom_site_symmetry_multiplicity
 _atom_site_fract_x
 _atom_site_fract_y
 _atom_site_fract_z
 _atom_site_occupancy
  Ti  Ti0  1  0.00000000  0.00000000  0.00000000  1
  Ti  Ti1  1  0.00000000  0.50000000  0.50000000  1
  Ti  Ti2  1  0.50000000  0.00000000  0.00000000  1
  Ti  Ti3  1  0.50000000  0.50000000  0.50000000  1
  W  W4  1  0.23767017  0.00000000  0.50000000  1
  W  W5  1  0.26232983  0.50000000  0.00000000  1
  W  W6  1  0.76232983  0.00000000  0.50000000  1
  W  W7  1  0.73767017  0.50000000  0.00000000  1
  N  N8  1  0.25000000  0.50000000  0.50000000  1
  N  N9  1  0.00000000  0.50000000  0.00000000  1
  N  N10  1  0.75000000  0.50000000  0.50000000  1
  N  N11  1  0.50000000  0.00000000  0.50000000  1
  C  C12  1  0.25000000  0.00000000  0.00000000  1
  C  C13  1  0.00000000  0.00000000  0.50000000  1
  C  C14  1  0.75000000  0.00000000  0.00000000  1
  C  C15  1  0.50000000  0.50000000  0.00000000  1
