# generated using pymatgen
data_Hf4B7C
_symmetry_space_group_name_H-M   'P 1'
_cell_length_a   6.20308921
_cell_length_b   6.20308920
_cell_length_c   7.04418871
_cell_angle_alpha   90.00000000
_cell_angle_beta   90.00000000
_cell_angle_gamma   120.00000000
_symmetry_Int_Tables_number   1
_chemical_formula_structural   Hf4B7C
_chemical_formula_sum   'Hf8 B14 C2'
_cell_volume   234.73490136
_cell_formula_units_Z   2
loop_
 _symmetry_equiv_pos_site_id
 _symmetry_equiv_pos_as_xyz
  1  'x, y, z'
loop_
 _atom_site_type_symbol
 _atom_site_label
 _atom_site_symmetry_multiplicity
 _atom_site_fract_x
 _atom_site_fract_y
 _atom_site_fract_z
 _atom_site_occupancy
  Hf  Hf0  1  0.00000000  0.00000000  0.99785496  1
  Hf  Hf1  1  0.00000000  0.00000000  0.50214504  1
  Hf  Hf2  1  0.00000000  0.50000000  0.99785496  1
  Hf  Hf3  1  0.00000000  0.50000000  0.50214504  1
  Hf  Hf4  1  0.50000000  0.00000000  0.99785496  1
  Hf  Hf5  1  0.50000000  0.00000000  0.50214504  1
  Hf  Hf6  1  0.50000000  0.50000000  0.00306018  1
  Hf  Hf7  1  0.50000000  0.50000000  0.49693982  1
  B  B8  1  0.15885685  0.32942841  0.25000000  1
  B  B9  1  0.32942841  0.15885685  0.25000000  1
  B  B10  1  0.16768508  0.33384253  0.75000000  1
  B  B11  1  0.33384253  0.16768508  0.75000000  1
  B  B12  1  0.32942841  0.67057159  0.25000000  1
  B  B13  1  0.16666667  0.83333333  0.75000000  1
  B  B14  1  0.33384253  0.66615747  0.75000000  1
  B  B15  1  0.67057159  0.32942841  0.25000000  1
  B  B16  1  0.66615747  0.33384253  0.75000000  1
  B  B17  1  0.83333333  0.16666667  0.75000000  1
  B  B18  1  0.67057159  0.84114315  0.25000000  1
  B  B19  1  0.84114315  0.67057159  0.25000000  1
  B  B20  1  0.66615747  0.83231492  0.75000000  1
  B  B21  1  0.83231492  0.66615747  0.75000000  1
  C  C22  1  0.16666667  0.83333333  0.25000000  1
  C  C23  1  0.83333333  0.16666667  0.25000000  1
