# generated using pymatgen
data_Hf4B7C
_symmetry_space_group_name_H-M   'P 1'
_cell_length_a   6.20472592
_cell_length_b   6.20472592
_cell_length_c   7.04129966
_cell_angle_alpha   90.00000000
_cell_angle_beta   90.00000000
_cell_angle_gamma   120.05010991
_symmetry_Int_Tables_number   1
_chemical_formula_structural   Hf4B7C
_chemical_formula_sum   'Hf8 B14 C2'
_cell_volume   234.64383536
_cell_formula_units_Z   2
loop_
 _symmetry_equiv_pos_site_id
 _symmetry_equiv_pos_as_xyz
  1  'x, y, z'
loop_
 _atom_site_type_symbol
 _atom_site_label
 _atom_site_symmetry_multiplicity
 _atom_site_fract_x
 _atom_site_fract_y
 _atom_site_fract_z
 _atom_site_occupancy
  Hf  Hf0  1  0.99995381  0.99995381  0.00000000  1
  Hf  Hf1  1  0.99995381  0.99995381  0.50000000  1
  Hf  Hf2  1  0.99982003  0.50017997  0.99786801  1
  Hf  Hf3  1  0.99982003  0.50017997  0.50213199  1
  Hf  Hf4  1  0.50017997  0.99982003  0.00213199  1
  Hf  Hf5  1  0.50017997  0.99982003  0.49786801  1
  Hf  Hf6  1  0.50004619  0.50004619  0.00000000  1
  Hf  Hf7  1  0.50004619  0.50004619  0.50000000  1
  C  C8  1  0.16615761  0.33384239  0.25000000  1
  C  C9  1  0.33384239  0.16615761  0.75000000  1
  B  B10  1  0.33094499  0.16905501  0.25000000  1
  B  B11  1  0.16905501  0.33094499  0.75000000  1
  B  B12  1  0.16421866  0.83193720  0.25000000  1
  B  B13  1  0.33041847  0.66108886  0.25000000  1
  B  B14  1  0.16958153  0.83891114  0.75000000  1
  B  B15  1  0.33578134  0.66806280  0.75000000  1
  B  B16  1  0.66806280  0.33578134  0.25000000  1
  B  B17  1  0.83891114  0.16958153  0.25000000  1
  B  B18  1  0.66108886  0.33041847  0.75000000  1
  B  B19  1  0.83193720  0.16421866  0.75000000  1
  B  B20  1  0.66781040  0.83218960  0.25000000  1
  B  B21  1  0.83345175  0.66654825  0.25000000  1
  B  B22  1  0.66654825  0.83345175  0.75000000  1
  B  B23  1  0.83218960  0.66781040  0.75000000  1
