# generated using pymatgen
data_Co7W17C24
_symmetry_space_group_name_H-M   'P 1'
_cell_length_a   8.65679686
_cell_length_b   5.76549439
_cell_length_c   11.09652272
_cell_angle_alpha   90.08736133
_cell_angle_beta   90.06140300
_cell_angle_gamma   120.20819832
_symmetry_Int_Tables_number   1
_chemical_formula_structural   Co7W17C24
_chemical_formula_sum   'Co7 W17 C24'
_cell_volume   478.62444573
_cell_formula_units_Z   1
loop_
 _symmetry_equiv_pos_site_id
 _symmetry_equiv_pos_as_xyz
  1  'x, y, z'
loop_
 _atom_site_type_symbol
 _atom_site_label
 _atom_site_symmetry_multiplicity
 _atom_site_fract_x
 _atom_site_fract_y
 _atom_site_fract_z
 _atom_site_occupancy
  W  W0  1  0.00484940  0.00283673  0.00693938  1
  W  W1  1  0.00552346  0.00102051  0.74572681  1
  W  W2  1  0.00494042  0.50604904  0.00683843  1
  W  W3  1  0.00311280  0.50807293  0.49266402  1
  W  W4  1  0.00622619  0.50704892  0.74886255  1
  W  W5  1  0.32265624  0.99256848  0.25118908  1
  W  W6  1  0.33035995  0.49814635  0.00545452  1
  W  W7  1  0.32608684  0.48374532  0.49195224  1
  W  W8  1  0.33115950  0.49788109  0.74881962  1
  W  W9  1  0.66612329  0.00373731  0.00156065  1
  W  W10  1  0.67125930  0.00301814  0.25034154  1
  W  W11  1  0.66783152  0.00278845  0.49851893  1
  W  W12  1  0.66492162  0.00219949  0.74940362  1
  W  W13  1  0.66381065  0.49416276  0.00144503  1
  W  W14  1  0.67115393  0.50513471  0.25037329  1
  W  W15  1  0.66772283  0.49752823  0.49840103  1
  W  W16  1  0.66386109  0.49402746  0.74919338  1
  C  C17  1  0.21534610  0.17266891  0.13798128  1
  C  C18  1  0.20829743  0.16117941  0.36849873  1
  C  C19  1  0.22187541  0.15708393  0.61928906  1
  C  C20  1  0.22329485  0.16742317  0.87799825  1
  C  C21  1  0.21819201  0.65479335  0.13659715  1
  C  C22  1  0.22109715  0.66233509  0.37024030  1
  C  C23  1  0.22423560  0.66262560  0.61888469  1
  C  C24  1  0.22552848  0.66740574  0.87937087  1
  C  C25  1  0.55490875  0.16624010  0.12828642  1
  C  C26  1  0.55661547  0.16692567  0.37185523  1
  C  C27  1  0.55496929  0.16492957  0.62347235  1
  C  C28  1  0.55557941  0.16648935  0.87469977  1
  C  C29  1  0.55743035  0.66854340  0.12694570  1
  C  C30  1  0.55781611  0.66822351  0.37470455  1
  C  C31  1  0.55272168  0.66213983  0.62190429  1
  C  C32  1  0.55389117  0.66532506  0.87640565  1
  C  C33  1  0.89119064  0.17031599  0.12762850  1
  C  C34  1  0.89615225  0.17599203  0.37152818  1
  C  C35  1  0.88934062  0.17229056  0.62401109  1
  C  C36  1  0.89185652  0.16908931  0.87645444  1
  C  C37  1  0.89002625  0.66721498  0.12896009  1
  C  C38  1  0.89438050  0.67554734  0.37075344  1
  C  C39  1  0.88846141  0.66306622  0.62334849  1
  C  C40  1  0.89055726  0.66881182  0.87592759  1
  Co  Co41  1  0.99361650  0.00060476  0.25561534  1
  Co  Co42  1  0.99479651  0.99970589  0.49458081  1
  Co  Co43  1  0.98775013  0.49341139  0.25098600  1
  Co  Co44  1  0.33531229  0.00032565  0.99294319  1
  Co  Co45  1  0.33740134  0.99490126  0.50560612  1
  Co  Co46  1  0.33533126  0.00354047  0.74913449  1
  Co  Co47  1  0.34376162  0.51088477  0.24770382  1
