# generated using pymatgen
data_Co7W17C24
_symmetry_space_group_name_H-M   'P 1'
_cell_length_a   8.62030092
_cell_length_b   5.74696512
_cell_length_c   11.08055185
_cell_angle_alpha   90.00000000
_cell_angle_beta   90.00000000
_cell_angle_gamma   119.12836827
_symmetry_Int_Tables_number   1
_chemical_formula_structural   Co7W17C24
_chemical_formula_sum   'Co7 W17 C24'
_cell_volume   479.51352390
_cell_formula_units_Z   1
loop_
 _symmetry_equiv_pos_site_id
 _symmetry_equiv_pos_as_xyz
  1  'x, y, z'
loop_
 _atom_site_type_symbol
 _atom_site_label
 _atom_site_symmetry_multiplicity
 _atom_site_fract_x
 _atom_site_fract_y
 _atom_site_fract_z
 _atom_site_occupancy
  W  W0  1  0.99320064  0.00814290  -0.00000000  1
  W  W1  1  0.00226058  0.00219012  0.24894570  1
  W  W2  1  0.99769311  0.00107334  0.50000000  1
  W  W3  1  0.00226058  0.00219012  0.75105430  1
  W  W4  1  0.00264156  0.50552967  0.24455191  1
  W  W5  1  0.99876758  0.49870188  0.50000000  1
  W  W6  1  0.00264156  0.50552967  0.75544809  1
  W  W7  1  0.33270801  0.99708335  -0.00000000  1
  W  W8  1  0.33669788  0.99929456  0.50000000  1
  W  W9  1  0.33687303  0.50152705  -0.00000000  1
  W  W10  1  0.33543797  0.49212136  0.24979172  1
  W  W11  1  0.33425257  0.49801389  0.50000000  1
  W  W12  1  0.33543797  0.49212136  0.75020828  1
  W  W13  1  0.66256752  0.00460888  0.24882301  1
  W  W14  1  0.66256752  0.00460888  0.75117699  1
  W  W15  1  0.66778920  0.49184472  -0.00000000  1
  W  W16  1  0.66394328  0.49803730  0.50000000  1
  C  C17  1  0.21867471  0.16986880  0.12081198  1
  C  C18  1  0.22123796  0.16658033  0.37584507  1
  C  C19  1  0.22123796  0.16658033  0.62415493  1
  C  C20  1  0.21867471  0.16986880  0.87918802  1
  C  C21  1  0.22691899  0.66920835  0.12615250  1
  C  C22  1  0.22229096  0.66228146  0.37350863  1
  C  C23  1  0.22229096  0.66228146  0.62649137  1
  C  C24  1  0.22691899  0.66920835  0.87384750  1
  C  C25  1  0.55099550  0.16119370  0.12521545  1
  C  C26  1  0.55267827  0.16513772  0.37423764  1
  C  C27  1  0.55267827  0.16513772  0.62576236  1
  C  C28  1  0.55099550  0.16119370  0.87478455  1
  C  C29  1  0.56030666  0.66449041  0.12570006  1
  C  C30  1  0.55932916  0.66888966  0.37327715  1
  C  C31  1  0.55932916  0.66888966  0.62672285  1
  C  C32  1  0.56030666  0.66449041  0.87429994  1
  C  C33  1  0.88567338  0.16891192  0.12663806  1
  C  C34  1  0.89284761  0.17489644  0.36932568  1
  C  C35  1  0.89284761  0.17489644  0.63067432  1
  C  C36  1  0.88567338  0.16891192  0.87336194  1
  C  C37  1  0.89099560  0.66915373  0.12084178  1
  C  C38  1  0.89119407  0.66948931  0.37431103  1
  C  C39  1  0.89119407  0.66948931  0.62568897  1
  C  C40  1  0.89099560  0.66915373  0.87915822  1
  Co  Co41  1  0.00508917  0.51518182  -0.00000000  1
  Co  Co42  1  0.32979139  0.97864288  0.25043201  1
  Co  Co43  1  0.32979139  0.97864288  0.74956799  1
  Co  Co44  1  0.65792358  0.98522521  -0.00000000  1
  Co  Co45  1  0.65634335  0.99166513  0.50000000  1
  Co  Co46  1  0.67018410  0.51390972  0.24896108  1
  Co  Co47  1  0.67018410  0.51390972  0.75103892  1
