# generated using pymatgen
data_Zr8B15C
_symmetry_space_group_name_H-M   'P 1'
_cell_length_a   6.30153915
_cell_length_b   6.30153915
_cell_length_c   7.11689790
_cell_angle_alpha   90.00000000
_cell_angle_beta   90.00000000
_cell_angle_gamma   119.99999995
_symmetry_Int_Tables_number   1
_chemical_formula_structural   Zr8B15C
_chemical_formula_sum   'Zr8 B15 C1'
_cell_volume   244.74546027
_cell_formula_units_Z   1
loop_
 _symmetry_equiv_pos_site_id
 _symmetry_equiv_pos_as_xyz
  1  'x, y, z'
loop_
 _atom_site_type_symbol
 _atom_site_label
 _atom_site_symmetry_multiplicity
 _atom_site_fract_x
 _atom_site_fract_y
 _atom_site_fract_z
 _atom_site_occupancy
  Zr  Zr0  1  0.99984752  0.99969504  0.99943421  1
  Zr  Zr1  1  0.99984752  0.99969504  0.50056579  1
  Zr  Zr2  1  0.99984752  0.50015248  0.99943421  1
  Zr  Zr3  1  0.99984752  0.50015248  0.50056579  1
  Zr  Zr4  1  0.50000000  0.00000000  0.00035341  1
  Zr  Zr5  1  0.50000000  0.00000000  0.49964659  1
  Zr  Zr6  1  0.50030496  0.50015248  0.99943421  1
  Zr  Zr7  1  0.50030496  0.50015248  0.50056579  1
  B  B8  1  0.16666667  0.33333333  0.25000000  1
  B  B9  1  0.33213445  0.16786555  0.25000000  1
  B  B10  1  0.16666667  0.33333333  0.75000000  1
  B  B11  1  0.33322914  0.16677086  0.75000000  1
  B  B12  1  0.16139875  0.83069937  0.25000000  1
  B  B13  1  0.33213445  0.66426890  0.25000000  1
  B  B14  1  0.16667530  0.83333764  0.75000000  1
  B  B15  1  0.33322914  0.66645830  0.75000000  1
  B  B16  1  0.66930063  0.33860125  0.25000000  1
  B  B17  1  0.83573110  0.16786555  0.25000000  1
  B  B18  1  0.66666236  0.33332470  0.75000000  1
  B  B19  1  0.83354170  0.16677086  0.75000000  1
  B  B20  1  0.66930063  0.83069937  0.25000000  1
  B  B21  1  0.66666236  0.83333764  0.75000000  1
  B  B22  1  0.83333333  0.66666667  0.75000000  1
  C  C23  1  0.83333333  0.66666667  0.25000000  1
