# generated using pymatgen
data_Co7W17C24
_symmetry_space_group_name_H-M   'P 1'
_cell_length_a   12.97059010
_cell_length_b   8.78924694
_cell_length_c   4.27464013
_cell_angle_alpha   90.00000000
_cell_angle_beta   90.00000000
_cell_angle_gamma   90.42592483
_symmetry_Int_Tables_number   1
_chemical_formula_structural   Co7W17C24
_chemical_formula_sum   'Co7 W17 C24'
_cell_volume   487.30285968
_cell_formula_units_Z   1
loop_
 _symmetry_equiv_pos_site_id
 _symmetry_equiv_pos_as_xyz
  1  'x, y, z'
loop_
 _atom_site_type_symbol
 _atom_site_label
 _atom_site_symmetry_multiplicity
 _atom_site_fract_x
 _atom_site_fract_y
 _atom_site_fract_z
 _atom_site_occupancy
  W  W0  1  0.98860950  0.00232667  0.00000000  1
  W  W1  1  0.00524425  0.23655614  0.50000000  1
  W  W2  1  0.18914194  0.00760889  0.50000000  1
  W  W3  1  0.17311282  0.24738392  0.00000000  1
  W  W4  1  0.01431150  0.47890559  0.00000000  1
  W  W5  1  0.99734255  0.75485815  0.50000000  1
  W  W6  1  0.18046270  0.75394445  0.00000000  1
  W  W7  1  0.34042866  0.26674364  0.50000000  1
  W  W8  1  0.49425764  0.97930376  0.50000000  1
  W  W9  1  0.33743110  0.50747098  0.00000000  1
  W  W10  1  0.50109614  0.51788884  0.50000000  1
  W  W11  1  0.66871154  0.98310735  0.00000000  1
  W  W12  1  0.65877016  0.26399623  0.50000000  1
  W  W13  1  0.83452138  0.99412975  0.50000000  1
  W  W14  1  0.66499972  0.50854367  0.00000000  1
  W  W15  1  0.83242997  0.49023843  0.50000000  1
  W  W16  1  0.83672896  0.75646608  0.00000000  1
  C  C17  1  0.17052660  0.25935373  0.50000000  1
  C  C18  1  0.17443698  0.00115586  0.00000000  1
  C  C19  1  0.99361409  0.24456885  0.00000000  1
  C  C20  1  0.00797151  -0.00514169  0.50000000  1
  C  C21  1  0.17199237  0.75710639  0.50000000  1
  C  C22  1  0.17270705  0.50325444  0.00000000  1
  C  C23  1  0.00563463  0.74274714  0.00000000  1
  C  C24  1  0.00466036  0.49696759  0.50000000  1
  C  C25  1  0.50038263  0.25303732  0.50000000  1
  C  C26  1  0.49668514  0.98206570  0.00000000  1
  C  C27  1  0.34458268  0.25092796  0.00000000  1
  C  C28  1  0.33869353  0.99556496  0.50000000  1
  C  C29  1  0.49791463  0.74919761  0.50000000  1
  C  C30  1  0.50204469  0.50627590  0.00000000  1
  C  C31  1  0.34333721  0.75624253  0.00000000  1
  C  C32  1  0.32489761  0.50386592  0.50000000  1
  C  C33  1  0.83147645  0.24632741  0.50000000  1
  C  C34  1  0.82953493  0.01934800  0.00000000  1
  C  C35  1  0.65029586  0.25230795  0.00000000  1
  C  C36  1  0.66605904  0.00219054  0.50000000  1
  C  C37  1  0.82318653  0.74408870  0.50000000  1
  C  C38  1  0.83913623  0.50027291  0.00000000  1
  C  C39  1  0.66045903  0.75006112  0.00000000  1
  C  C40  1  0.66937241  0.51805727  0.50000000  1
  Co  Co41  1  0.15378113  0.54203647  0.50000000  1
  Co  Co42  1  0.33840636  0.97180951  0.00000000  1
  Co  Co43  1  0.49608389  0.19715961  0.00000000  1
  Co  Co44  1  0.32783377  0.72155431  0.50000000  1
  Co  Co45  1  0.48991760  0.73192152  0.00000000  1
  Co  Co46  1  0.80247970  0.27961679  0.00000000  1
  Co  Co47  1  0.65429485  0.77658520  0.50000000  1
