# generated using pymatgen
data_Co5W11C16
_symmetry_space_group_name_H-M   'P 1'
_cell_length_a   5.79718578
_cell_length_b   5.74917711
_cell_length_c   11.08548153
_cell_angle_alpha   89.66889573
_cell_angle_beta   90.00847687
_cell_angle_gamma   120.50298508
_symmetry_Int_Tables_number   1
_chemical_formula_structural   Co5W11C16
_chemical_formula_sum   'Co5 W11 C16'
_cell_volume   318.32812251
_cell_formula_units_Z   1
loop_
 _symmetry_equiv_pos_site_id
 _symmetry_equiv_pos_as_xyz
  1  'x, y, z'
loop_
 _atom_site_type_symbol
 _atom_site_label
 _atom_site_symmetry_multiplicity
 _atom_site_fract_x
 _atom_site_fract_y
 _atom_site_fract_z
 _atom_site_occupancy
  Co  Co0  1  0.01057610  0.01204126  0.00082765  1
  Co  Co1  1  0.99837631  0.49867048  0.25620857  1
  Co  Co2  1  0.00657043  0.49549805  0.49302399  1
  Co  Co3  1  0.50244927  0.00170194  0.99383442  1
  Co  Co4  1  0.50329427  0.99215575  0.75800213  1
  C  C5  1  0.33503740  0.17246283  0.12389003  1
  C  C6  1  0.33343967  0.16681355  0.37364664  1
  C  C7  1  0.32366540  0.16843673  0.62387176  1
  C  C8  1  0.33016275  0.15538146  0.88151462  1
  C  C9  1  0.34312764  0.67759281  0.11925200  1
  C  C10  1  0.33606554  0.67022003  0.37436698  1
  C  C11  1  0.33160873  0.66672233  0.62518680  1
  C  C12  1  0.32940554  0.66030351  0.87491365  1
  C  C13  1  0.83487970  0.16853576  0.12067066  1
  C  C14  1  0.83183346  0.16479466  0.37278156  1
  C  C15  1  0.83067767  0.16375663  0.62713475  1
  C  C16  1  0.83069183  0.15916397  0.88155514  1
  C  C17  1  0.83484312  0.67623426  0.12077764  1
  C  C18  1  0.83545281  0.66744056  0.37268668  1
  C  C19  1  0.82646675  0.67226310  0.63003654  1
  C  C20  1  0.82905416  0.65382089  0.87385564  1
  W  W21  1  0.99956215  0.00197031  0.24435422  1
  W  W22  1  0.99611169  0.99813567  0.49990789  1
  W  W23  1  0.99859495  0.99942503  0.75712833  1
  W  W24  1  0.00098400  0.50319706  0.00501382  1
  W  W25  1  0.99795354  0.49539532  0.74756949  1
  W  W26  1  0.50174231  0.00140482  0.24442360  1
  W  W27  1  0.50049619  0.00081966  0.50383544  1
  W  W28  1  0.50120532  0.49970124  0.99953056  1
  W  W29  1  0.50315800  0.50726346  0.24886635  1
  W  W30  1  0.50222941  0.50363804  0.49981869  1
  W  W31  1  0.49361721  0.49170555  0.75151377  1
