# generated using pymatgen
data_Co5W11C16
_symmetry_space_group_name_H-M   'P 1'
_cell_length_a   5.74348934
_cell_length_b   5.77876709
_cell_length_c   11.02371715
_cell_angle_alpha   90.15265523
_cell_angle_beta   90.10943116
_cell_angle_gamma   119.50130171
_symmetry_Int_Tables_number   1
_chemical_formula_structural   Co5W11C16
_chemical_formula_sum   'Co5 W11 C16'
_cell_volume   318.43863059
_cell_formula_units_Z   1
loop_
 _symmetry_equiv_pos_site_id
 _symmetry_equiv_pos_as_xyz
  1  'x, y, z'
loop_
 _atom_site_type_symbol
 _atom_site_label
 _atom_site_symmetry_multiplicity
 _atom_site_fract_x
 _atom_site_fract_y
 _atom_site_fract_z
 _atom_site_occupancy
  W  W0  1  0.00562761  0.00293682  0.99435749  1
  W  W1  1  0.99820496  0.99748680  0.24864548  1
  W  W2  1  0.99699777  0.99920976  0.50398387  1
  W  W3  1  0.00736021  0.50028747  0.99970072  1
  W  W4  1  0.99618077  0.49841320  0.24922227  1
  W  W5  1  0.99686015  0.49954156  0.50015955  1
  W  W6  1  0.00039963  0.50077999  0.75030682  1
  W  W7  1  0.49652802  0.99875855  0.49726946  1
  W  W8  1  0.49984499  -0.00009554  0.75688163  1
  W  W9  1  0.50225243  0.49977436  0.00074269  1
  W  W10  1  0.49651850  0.49897165  0.50078772  1
  C  C11  1  0.33941059  0.16959611  0.12692466  1
  C  C12  1  0.32930748  0.16632851  0.37339523  1
  C  C13  1  0.33234457  0.16783495  0.62777232  1
  C  C14  1  0.33481294  0.17310057  0.87048295  1
  C  C15  1  0.34131661  0.66779332  0.12967057  1
  C  C16  1  0.33121040  0.66338798  0.37124528  1
  C  C17  1  0.33143977  0.67101907  0.62604258  1
  C  C18  1  0.33797153  0.66181410  0.87322809  1
  C  C19  1  0.83774773  0.16740456  0.12286397  1
  C  C20  1  0.83353113  0.16601023  0.37262230  1
  C  C21  1  0.82702259  0.16696540  0.62795706  1
  C  C22  1  0.84077287  0.16735865  0.87099142  1
  C  C23  1  0.84518424  0.67340291  0.12039524  1
  C  C24  1  0.83301906  0.66857147  0.37488473  1
  C  C25  1  0.82852308  0.66782323  0.63009937  1
  C  C26  1  0.83438190  0.66520737  0.87449643  1
  Co  Co27  1  -0.00001407  0.99847925  0.74897457  1
  Co  Co28  1  0.50030251  0.00151581  0.00902490  1
  Co  Co29  1  0.49400961  0.99580962  0.24512303  1
  Co  Co30  1  0.48058652  0.49014044  0.25023019  1
  Co  Co31  1  0.50367720  0.50103853  0.75151739  1
