# generated using pymatgen
data_Co5W11C16
_symmetry_space_group_name_H-M   'P 1'
_cell_length_a   8.74321752
_cell_length_b   8.64790529
_cell_length_c   4.25544895
_cell_angle_alpha   90.00000000
_cell_angle_beta   90.00000000
_cell_angle_gamma   90.00000000
_symmetry_Int_Tables_number   1
_chemical_formula_structural   Co5W11C16
_chemical_formula_sum   'Co5 W11 C16'
_cell_volume   321.75669536
_cell_formula_units_Z   1
loop_
 _symmetry_equiv_pos_site_id
 _symmetry_equiv_pos_as_xyz
  1  'x, y, z'
loop_
 _atom_site_type_symbol
 _atom_site_label
 _atom_site_symmetry_multiplicity
 _atom_site_fract_x
 _atom_site_fract_y
 _atom_site_fract_z
 _atom_site_occupancy
  W  W0  1  0.00225974  0.98033950  0.00000000  1
  W  W1  1  0.99385477  0.25000000  0.50000000  1
  W  W2  1  0.24624327  0.25000000  0.00000000  1
  W  W3  1  0.00225974  0.51966050  0.00000000  1
  W  W4  1  0.47596985  0.01145580  0.00000000  1
  W  W5  1  0.76419493  0.00296438  0.50000000  1
  W  W6  1  0.75883159  0.25000000  0.00000000  1
  W  W7  1  0.47596985  0.48854420  0.00000000  1
  W  W8  1  0.47685649  0.75000000  0.50000000  1
  W  W9  1  0.76419493  0.49703562  0.50000000  1
  W  W10  1  0.74801332  0.75000000  0.00000000  1
  Co  Co11  1  0.26720134  0.00932758  0.50000000  1
  Co  Co12  1  0.04079637  0.75000000  0.50000000  1
  Co  Co13  1  0.26720134  0.49067242  0.50000000  1
  Co  Co14  1  0.26807032  0.75000000  0.00000000  1
  Co  Co15  1  0.46608443  0.25000000  0.50000000  1
  C  C16  1  0.24304552  0.25000000  0.50000000  1
  C  C17  1  0.24498598  0.99112040  0.00000000  1
  C  C18  1  0.00128555  0.25000000  0.00000000  1
  C  C19  1  0.01295214  0.99075126  0.50000000  1
  C  C20  1  0.24761376  0.75000000  0.50000000  1
  C  C21  1  0.24498598  0.50887960  0.00000000  1
  C  C22  1  0.01306398  0.75000000  0.00000000  1
  C  C23  1  0.01295214  0.50924874  0.50000000  1
  C  C24  1  0.72698012  0.25000000  0.50000000  1
  C  C25  1  0.74360760  0.00019771  0.00000000  1
  C  C26  1  0.49828595  0.25000000  0.00000000  1
  C  C27  1  0.49764248  0.00652698  0.50000000  1
  C  C28  1  0.75619775  0.75000000  0.50000000  1
  C  C29  1  0.74360760  0.49980229  0.00000000  1
  C  C30  1  0.49714872  0.75000000  0.00000000  1
  C  C31  1  0.49764248  0.49347302  0.50000000  1
