# generated using pymatgen
data_Co5W11C16
_symmetry_space_group_name_H-M   'P 1'
_cell_length_a   5.73172538
_cell_length_b   5.80090991
_cell_length_c   11.08833478
_cell_angle_alpha   90.00000001
_cell_angle_beta   90.27519753
_cell_angle_gamma   120.40009716
_symmetry_Int_Tables_number   1
_chemical_formula_structural   Co5W11C16
_chemical_formula_sum   'Co5 W11 C16'
_cell_volume   317.98500802
_cell_formula_units_Z   1
loop_
 _symmetry_equiv_pos_site_id
 _symmetry_equiv_pos_as_xyz
  1  'x, y, z'
loop_
 _atom_site_type_symbol
 _atom_site_label
 _atom_site_symmetry_multiplicity
 _atom_site_fract_x
 _atom_site_fract_y
 _atom_site_fract_z
 _atom_site_occupancy
  W  W0  1  0.99536495  0.99733194  0.99801661  1
  W  W1  1  0.99685293  0.99846538  0.24854482  1
  W  W2  1  0.00517541  0.00081365  0.50117900  1
  W  W3  1  0.99952502  0.00044726  0.75077931  1
  W  W4  1  0.99536495  0.49803301  0.99801661  1
  W  W5  1  0.99685293  0.49838755  0.24854482  1
  W  W6  1  0.00517541  0.50436176  0.50117900  1
  W  W7  1  0.99952502  0.49907776  0.75077931  1
  W  W8  1  0.49682026  0.99841013  0.24485471  1
  W  W9  1  0.50001460  0.00000730  0.50700496  1
  W  W10  1  0.49667991  0.49833996  0.24748738  1
  C  C11  1  0.33137332  0.16738992  0.12131747  1
  C  C12  1  0.33269218  0.16035204  0.37384367  1
  C  C13  1  0.34396664  0.17312198  0.63187701  1
  C  C14  1  0.34255224  0.17206146  0.87643855  1
  C  C15  1  0.33137332  0.66398341  0.12131747  1
  C  C16  1  0.33269218  0.67234015  0.37384367  1
  C  C17  1  0.34396664  0.67084467  0.63187701  1
  C  C18  1  0.34255224  0.67049080  0.87643855  1
  C  C19  1  0.83407712  0.16703857  0.12025695  1
  C  C20  1  0.83169689  0.16584846  0.37716214  1
  C  C21  1  0.84725427  0.17362714  0.62360788  1
  C  C22  1  0.83074173  0.16537087  0.87379984  1
  C  C23  1  0.83400990  0.66700495  0.12286926  1
  C  C24  1  0.83373255  0.66686628  0.37567501  1
  C  C25  1  0.83854986  0.66927493  0.62578188  1
  C  C26  1  0.83048856  0.66524429  0.87319511  1
  Co  Co27  1  0.49041102  0.99520551  0.99210980  1
  Co  Co28  1  0.48450723  0.99225362  0.75777353  1
  Co  Co29  1  0.48946046  0.49473023  0.99221858  1
  Co  Co30  1  0.50448693  0.50224347  0.50866503  1
  Co  Co31  1  0.49539656  0.49769828  0.75354501  1
