# generated using pymatgen
data_Co5W11C16
_symmetry_space_group_name_H-M   'P 1'
_cell_length_a   8.60969210
_cell_length_b   8.71153570
_cell_length_c   4.28092957
_cell_angle_alpha   90.00000000
_cell_angle_beta   90.00000000
_cell_angle_gamma   90.73343661
_symmetry_Int_Tables_number   1
_chemical_formula_structural   Co5W11C16
_chemical_formula_sum   'Co5 W11 C16'
_cell_volume   321.05899408
_cell_formula_units_Z   1
loop_
 _symmetry_equiv_pos_site_id
 _symmetry_equiv_pos_as_xyz
  1  'x, y, z'
loop_
 _atom_site_type_symbol
 _atom_site_label
 _atom_site_symmetry_multiplicity
 _atom_site_fract_x
 _atom_site_fract_y
 _atom_site_fract_z
 _atom_site_occupancy
  W  W0  1  0.02310633  0.01301558  0.00000000  1
  W  W1  1  0.00173162  0.25799402  0.50000000  1
  W  W2  1  0.99645006  0.48968840  0.00000000  1
  W  W3  1  0.01231301  0.76572244  0.50000000  1
  W  W4  1  0.25453944  0.51354057  0.50000000  1
  W  W5  1  0.49063152  0.99038862  0.00000000  1
  W  W6  1  0.48632164  0.24543967  0.50000000  1
  W  W7  1  0.75719116  0.24325825  0.00000000  1
  W  W8  1  0.50152378  0.52640078  0.00000000  1
  W  W9  1  0.74516954  0.47986302  0.50000000  1
  W  W10  1  0.75543518  0.77044894  0.00000000  1
  Co  Co11  1  0.24007816  0.97969102  0.50000000  1
  Co  Co12  1  0.27290969  0.22449771  0.00000000  1
  Co  Co13  1  0.22859833  0.72695346  0.00000000  1
  Co  Co14  1  0.71835258  0.97129778  0.50000000  1
  Co  Co15  1  0.48043631  0.77375895  0.50000000  1
  C  C16  1  0.24860621  0.24616259  0.50000000  1
  C  C17  1  0.25555360  0.99739535  0.00000000  1
  C  C18  1  0.03022851  0.25547441  0.00000000  1
  C  C19  1  0.00622087  0.00861325  0.50000000  1
  C  C20  1  0.26045685  0.75865399  0.50000000  1
  C  C21  1  0.25004450  0.49614271  0.00000000  1
  C  C22  1  0.00399961  0.75546018  0.00000000  1
  C  C23  1  0.99870489  0.51487771  0.50000000  1
  C  C24  1  0.74869473  0.22027912  0.50000000  1
  C  C25  1  0.75414488  0.00297842  0.00000000  1
  C  C26  1  0.49969171  0.25568088  0.00000000  1
  C  C27  1  0.49270945  -0.00130251  0.50000000  1
  C  C28  1  0.74723187  0.74830681  0.50000000  1
  C  C29  1  0.74782125  0.50333948  0.00000000  1
  C  C30  1  0.48880163  0.75469765  0.00000000  1
  C  C31  1  0.50230109  0.51128074  0.50000000  1
