# generated using pymatgen
data_Co7W17C24
_symmetry_space_group_name_H-M   'P 1'
_cell_length_a   12.96511391
_cell_length_b   8.79270877
_cell_length_c   4.27413101
_cell_angle_alpha   90.00000000
_cell_angle_beta   90.00000000
_cell_angle_gamma   90.42566805
_symmetry_Int_Tables_number   1
_chemical_formula_structural   Co7W17C24
_chemical_formula_sum   'Co7 W17 C24'
_cell_volume   487.23095270
_cell_formula_units_Z   1
loop_
 _symmetry_equiv_pos_site_id
 _symmetry_equiv_pos_as_xyz
  1  'x, y, z'
loop_
 _atom_site_type_symbol
 _atom_site_label
 _atom_site_symmetry_multiplicity
 _atom_site_fract_x
 _atom_site_fract_y
 _atom_site_fract_z
 _atom_site_occupancy
  W  W0  1  0.98880054  0.00243026  0.00000000  1
  W  W1  1  0.00499886  0.23666014  0.50000000  1
  W  W2  1  0.18917858  0.00769147  0.50000000  1
  W  W3  1  0.17296440  0.24738779  0.00000000  1
  W  W4  1  0.01427197  0.47861104  0.00000000  1
  W  W5  1  0.99750279  0.75489515  0.50000000  1
  W  W6  1  0.18025321  0.75409550  0.00000000  1
  W  W7  1  0.34051015  0.26703590  0.50000000  1
  W  W8  1  0.49437731  0.97913383  0.50000000  1
  W  W9  1  0.33733228  0.50771882  0.00000000  1
  W  W10  1  0.50108768  0.51791063  0.50000000  1
  W  W11  1  0.66870275  0.98296684  0.00000000  1
  W  W12  1  0.65891612  0.26416327  0.50000000  1
  W  W13  1  0.83448571  0.99392082  0.50000000  1
  W  W14  1  0.66494631  0.50846612  0.00000000  1
  W  W15  1  0.83262209  0.49040630  0.50000000  1
  W  W16  1  0.83676346  0.75642323  0.00000000  1
  C  C17  1  0.17054608  0.25918567  0.50000000  1
  C  C18  1  0.17452442  0.00121817  0.00000000  1
  C  C19  1  0.99323446  0.24455399  0.00000000  1
  C  C20  1  0.00800379  -0.00508105  0.50000000  1
  C  C21  1  0.17210566  0.75722622  0.50000000  1
  C  C22  1  0.17262353  0.50329337  0.00000000  1
  C  C23  1  0.00562894  0.74257973  0.00000000  1
  C  C24  1  0.00466993  0.49701860  0.50000000  1
  C  C25  1  0.50041161  0.25300868  0.50000000  1
  C  C26  1  0.49664496  0.98196465  0.00000000  1
  C  C27  1  0.34445518  0.25125897  0.00000000  1
  C  C28  1  0.33878256  0.99564921  0.50000000  1
  C  C29  1  0.49796235  0.74913577  0.50000000  1
  C  C30  1  0.50203490  0.50614311  0.00000000  1
  C  C31  1  0.34331414  0.75622315  0.00000000  1
  C  C32  1  0.32478253  0.50400802  0.50000000  1
  C  C33  1  0.83144731  0.24633187  0.50000000  1
  C  C34  1  0.82956292  0.01910392  0.00000000  1
  C  C35  1  0.65029092  0.25224705  0.00000000  1
  C  C36  1  0.66602786  0.00218136  0.50000000  1
  C  C37  1  0.82317371  0.74402282  0.50000000  1
  C  C38  1  0.83911979  0.50037668  0.00000000  1
  C  C39  1  0.66035426  0.75000463  0.00000000  1
  C  C40  1  0.66943524  0.51803772  0.50000000  1
  Co  Co41  1  0.15377922  0.54226350  0.50000000  1
  Co  Co42  1  0.33848909  0.97145584  0.00000000  1
  Co  Co43  1  0.49583107  0.19701047  0.00000000  1
  Co  Co44  1  0.32803038  0.72162189  0.50000000  1
  Co  Co45  1  0.49002322  0.73165894  0.00000000  1
  Co  Co46  1  0.80255317  0.27974469  0.00000000  1
  Co  Co47  1  0.65444260  0.77663524  0.50000000  1
