# generated using pymatgen
data_Co7W17C24
_symmetry_space_group_name_H-M   'P 1'
_cell_length_a   13.28178322
_cell_length_b   8.76861280
_cell_length_c   4.24688780
_cell_angle_alpha   90.00000000
_cell_angle_beta   90.00000000
_cell_angle_gamma   91.21226477
_symmetry_Int_Tables_number   1
_chemical_formula_structural   Co7W17C24
_chemical_formula_sum   'Co7 W17 C24'
_cell_volume   494.49380196
_cell_formula_units_Z   1
loop_
 _symmetry_equiv_pos_site_id
 _symmetry_equiv_pos_as_xyz
  1  'x, y, z'
loop_
 _atom_site_type_symbol
 _atom_site_label
 _atom_site_symmetry_multiplicity
 _atom_site_fract_x
 _atom_site_fract_y
 _atom_site_fract_z
 _atom_site_occupancy
  W  W0  1  0.03302994  0.00937296  0.00000000  1
  W  W1  1  0.97788199  0.23335190  0.50000000  1
  W  W2  1  0.99152974  0.47012962  0.00000000  1
  W  W3  1  0.01501118  0.77390924  0.50000000  1
  W  W4  1  0.16173903  0.46087331  0.50000000  1
  W  W5  1  0.17118557  0.73220334  0.00000000  1
  W  W6  1  0.33483567  0.98698034  0.00000000  1
  W  W7  1  0.34766817  0.24733112  0.50000000  1
  W  W8  1  0.50154260  0.97406020  0.50000000  1
  W  W9  1  0.33864269  0.49498546  0.00000000  1
  W  W10  1  0.49427395  0.51794369  0.50000000  1
  W  W11  1  0.64992075  0.27253242  0.50000000  1
  W  W12  1  0.80239068  0.00140855  0.50000000  1
  W  W13  1  0.82322031  0.25154741  0.00000000  1
  W  W14  1  0.65769265  0.52998609  0.00000000  1
  W  W15  1  0.84691942  0.54386478  0.50000000  1
  W  W16  1  0.85883959  0.77794993  0.00000000  1
  Co  Co17  1  0.17393863  0.02466263  0.50000000  1
  Co  Co18  1  0.20594776  0.25790063  0.00000000  1
  Co  Co19  1  0.51324479  0.19834419  0.00000000  1
  Co  Co20  1  0.32513946  0.77643621  0.50000000  1
  Co  Co21  1  0.49489056  0.73066011  0.00000000  1
  Co  Co22  1  0.65443897  0.96838189  0.00000000  1
  Co  Co23  1  0.65772940  0.74034382  0.50000000  1
  C  C24  1  0.17218023  0.23715168  0.50000000  1
  C  C25  1  0.17944360  0.00205007  0.00000000  1
  C  C26  1  0.99433891  0.23782754  0.00000000  1
  C  C27  1  0.01387006  0.00628070  0.50000000  1
  C  C28  1  0.17317742  0.75550865  0.50000000  1
  C  C29  1  0.16450388  0.48282956  0.00000000  1
  C  C30  1  0.01081018  0.74541751  0.00000000  1
  C  C31  1  0.00256230  0.50126146  0.50000000  1
  C  C32  1  0.49941416  0.25012218  0.50000000  1
  C  C33  1  0.50311380  0.98136647  0.00000000  1
  C  C34  1  0.35450627  0.24444945  0.00000000  1
  C  C35  1  0.32969100  0.99527215  0.50000000  1
  C  C36  1  0.49321588  0.74713727  0.50000000  1
  C  C37  1  0.49893802  0.50444303  0.00000000  1
  C  C38  1  0.33868889  0.74306362  0.00000000  1
  C  C39  1  0.32734882  0.50181383  0.50000000  1
  C  C40  1  0.82249175  0.27360946  0.50000000  1
  C  C41  1  0.81343167  0.00765969  0.00000000  1
  C  C42  1  0.65728059  0.25037345  0.00000000  1
  C  C43  1  0.65556386  0.99875305  0.50000000  1
  C  C44  1  0.81779876  0.76884064  0.50000000  1
  C  C45  1  0.82871348  0.51500484  0.00000000  1
  C  C46  1  0.64954175  0.75944598  0.00000000  1
  C  C47  1  0.66772117  0.51515789  0.50000000  1
