# generated using pymatgen
data_Co5W11C16
_symmetry_space_group_name_H-M   'P 1'
_cell_length_a   8.68233767
_cell_length_b   8.73236028
_cell_length_c   4.25514112
_cell_angle_alpha   90.00000000
_cell_angle_beta   90.00000000
_cell_angle_gamma   90.26998572
_symmetry_Int_Tables_number   1
_chemical_formula_structural   Co5W11C16
_chemical_formula_sum   'Co5 W11 C16'
_cell_volume   322.60973164
_cell_formula_units_Z   1
loop_
 _symmetry_equiv_pos_site_id
 _symmetry_equiv_pos_as_xyz
  1  'x, y, z'
loop_
 _atom_site_type_symbol
 _atom_site_label
 _atom_site_symmetry_multiplicity
 _atom_site_fract_x
 _atom_site_fract_y
 _atom_site_fract_z
 _atom_site_occupancy
  W  W0  1  0.02385598  0.01232972  0.00000000  1
  W  W1  1  0.26251966  0.25081473  0.00000000  1
  W  W2  1  0.99416449  0.48136254  0.00000000  1
  W  W3  1  0.00794082  0.76086800  0.50000000  1
  W  W4  1  0.25424421  0.71923980  0.00000000  1
  W  W5  1  0.49836751  0.00355548  0.00000000  1
  W  W6  1  0.49310466  0.24625898  0.50000000  1
  W  W7  1  0.74231734  0.99688969  0.50000000  1
  W  W8  1  0.52280114  0.49249710  0.00000000  1
  W  W9  1  0.51218854  0.75405155  0.50000000  1
  W  W10  1  0.75852060  0.75815517  0.00000000  1
  Co  Co11  1  0.97666001  0.26106250  0.50000000  1
  Co  Co12  1  0.22349216  0.05577386  0.50000000  1
  Co  Co13  1  0.19779661  0.51242084  0.50000000  1
  Co  Co14  1  0.77316317  0.26855781  0.00000000  1
  Co  Co15  1  0.73185934  0.45427790  0.50000000  1
  C  C16  1  0.24481411  0.27575865  0.50000000  1
  C  C17  1  0.25599165  0.99792028  0.00000000  1
  C  C18  1  -0.00047205  0.24631804  0.00000000  1
  C  C19  1  0.00137781  0.01167398  0.50000000  1
  C  C20  1  0.25591164  0.73520941  0.50000000  1
  C  C21  1  0.25217706  0.49094131  0.00000000  1
  C  C22  1  0.00606557  0.74801988  0.00000000  1
  C  C23  1  0.97809647  0.49731524  0.50000000  1
  C  C24  1  0.75674008  0.24458442  0.50000000  1
  C  C25  1  0.75721589  0.01041743  0.00000000  1
  C  C26  1  0.52049638  0.24490976  0.00000000  1
  C  C27  1  0.47193264  0.99551023  0.50000000  1
  C  C28  1  0.75878809  0.73602553  0.50000000  1
  C  C29  1  0.75502864  0.49604873  0.00000000  1
  C  C30  1  0.50600336  0.74486823  0.00000000  1
  C  C31  1  0.50683641  0.49636323  0.50000000  1
