# generated using pymatgen
data_Co7W17C24
_symmetry_space_group_name_H-M   'P 1'
_cell_length_a   8.63474547
_cell_length_b   5.80997616
_cell_length_c   11.06525884
_cell_angle_alpha   90.06466344
_cell_angle_beta   89.97679692
_cell_angle_gamma   120.32418023
_symmetry_Int_Tables_number   1
_chemical_formula_structural   Co7W17C24
_chemical_formula_sum   'Co7 W17 C24'
_cell_volume   479.16803169
_cell_formula_units_Z   1
loop_
 _symmetry_equiv_pos_site_id
 _symmetry_equiv_pos_as_xyz
  1  'x, y, z'
loop_
 _atom_site_type_symbol
 _atom_site_label
 _atom_site_symmetry_multiplicity
 _atom_site_fract_x
 _atom_site_fract_y
 _atom_site_fract_z
 _atom_site_occupancy
  W  W0  1  0.00382329  0.00029062  0.99540291  1
  W  W1  1  0.00731431  0.00311225  0.25028758  1
  W  W2  1  0.00437361  0.00516737  0.50474107  1
  W  W3  1  0.00479323  0.50645051  0.99498381  1
  W  W4  1  0.00834447  0.50811163  0.24997844  1
  W  W5  1  0.00380323  0.50091044  0.50480197  1
  W  W6  1  0.33077488  0.99814738  0.49451350  1
  W  W7  1  0.32505862  0.99414099  0.75573903  1
  W  W8  1  0.33031412  0.49767984  0.00537394  1
  W  W9  1  0.32492029  0.49380399  0.74420802  1
  W  W10  1  0.66629635  0.00171602  0.00068338  1
  W  W11  1  0.65882959  0.99429637  0.25000331  1
  W  W12  1  0.66408415  0.99557334  0.49927562  1
  W  W13  1  0.66717163  0.00036860  0.75009430  1
  W  W14  1  0.66316903  0.49431109  0.00544305  1
  W  W15  1  0.66511138  0.50182275  0.49468676  1
  W  W16  1  0.66940234  0.50196024  0.74995415  1
  C  C17  1  0.22888923  0.16900637  0.12709437  1
  C  C18  1  0.22885459  0.17508681  0.37322836  1
  C  C19  1  0.21659012  0.15592472  0.62913816  1
  C  C20  1  0.21545354  0.16904210  0.87016621  1
  C  C21  1  0.22895585  0.67640536  0.12679281  1
  C  C22  1  0.22859439  0.66643162  0.37340906  1
  C  C23  1  0.21735112  0.66999979  0.62867849  1
  C  C24  1  0.21725997  0.65646425  0.87110058  1
  C  C25  1  0.55356434  0.17123811  0.12928590  1
  C  C26  1  0.55345078  0.16621134  0.37234813  1
  C  C27  1  0.55142294  0.16500920  0.62478079  1
  C  C28  1  0.55558379  0.16800230  0.87656425  1
  C  C29  1  0.55351263  0.66407524  0.12785087  1
  C  C30  1  0.55357267  0.65889348  0.37067296  1
  C  C31  1  0.55584548  0.66537415  0.62375479  1
  C  C32  1  0.55126624  0.66214849  0.87527113  1
  C  C33  1  0.89106748  0.16838390  0.12565639  1
  C  C34  1  0.88995038  0.16738985  0.37420302  1
  C  C35  1  0.88942037  0.16821549  0.62869917  1
  C  C36  1  0.88927683  0.16683317  0.87228573  1
  C  C37  1  0.89597307  0.67207525  0.12408097  1
  C  C38  1  0.89630113  0.67168732  0.37591433  1
  C  C39  1  0.88875765  0.66696999  0.62598792  1
  C  C40  1  0.88864552  0.66632437  0.87270147  1
  Co  Co41  1  0.99263037  0.99616686  0.75028756  1
  Co  Co42  1  0.99248801  0.49184368  0.74968732  1
  Co  Co43  1  0.33953279  0.00319977  0.01271370  1
  Co  Co44  1  0.32917083  0.99615720  0.24845158  1
  Co  Co45  1  0.32708232  0.49560469  0.25152115  1
  Co  Co46  1  0.33871019  0.50431789  0.48748624  1
  Co  Co47  1  0.67657428  0.50765390  0.25001576  1
