# generated using pymatgen
data_Zr16BC15
_symmetry_space_group_name_H-M   'P 1'
_cell_length_a   9.44370407
_cell_length_b   9.44370407
_cell_length_c   4.72011406
_cell_angle_alpha   90.00000000
_cell_angle_beta   90.00000000
_cell_angle_gamma   90.00000000
_symmetry_Int_Tables_number   1
_chemical_formula_structural   Zr16BC15
_chemical_formula_sum   'Zr16 B1 C15'
_cell_volume   420.95651205
_cell_formula_units_Z   1
loop_
 _symmetry_equiv_pos_site_id
 _symmetry_equiv_pos_as_xyz
  1  'x, y, z'
loop_
 _atom_site_type_symbol
 _atom_site_label
 _atom_site_symmetry_multiplicity
 _atom_site_fract_x
 _atom_site_fract_y
 _atom_site_fract_z
 _atom_site_occupancy
  Zr  Zr0  1  0.99489790  0.00000000  0.00000000  1
  Zr  Zr1  1  0.99994316  0.25005684  0.50000000  1
  Zr  Zr2  1  0.25000000  0.00000000  0.50000000  1
  Zr  Zr3  1  0.25000000  0.25510210  0.00000000  1
  Zr  Zr4  1  0.99885066  0.50000000  0.00000000  1
  Zr  Zr5  1  0.99994316  0.74994316  0.50000000  1
  Zr  Zr6  1  0.25000000  0.50000000  0.50000000  1
  Zr  Zr7  1  0.25000000  0.74489790  0.00000000  1
  Zr  Zr8  1  0.50510210  0.00000000  0.00000000  1
  Zr  Zr9  1  0.50005684  0.25005684  0.50000000  1
  Zr  Zr10  1  0.75000000  0.00000000  0.50000000  1
  Zr  Zr11  1  0.75000000  0.25114934  0.00000000  1
  Zr  Zr12  1  0.50114934  0.50000000  0.00000000  1
  Zr  Zr13  1  0.50005684  0.74994316  0.50000000  1
  Zr  Zr14  1  0.75000000  0.50000000  0.50000000  1
  Zr  Zr15  1  0.75000000  0.74885066  0.00000000  1
  C  C16  1  0.25000000  0.25130703  0.50000000  1
  C  C17  1  0.99912100  0.25087900  0.00000000  1
  C  C18  1  0.99869297  0.00000000  0.50000000  1
  C  C19  1  0.25000000  0.74869297  0.50000000  1
  C  C20  1  0.25000000  0.50000000  0.00000000  1
  C  C21  1  0.99912100  0.74912100  0.00000000  1
  C  C22  1  0.99956016  0.50000000  0.50000000  1
  C  C23  1  0.75000000  0.25043984  0.50000000  1
  C  C24  1  0.75000000  0.00000000  0.00000000  1
  C  C25  1  0.50087900  0.25087900  0.00000000  1
  C  C26  1  0.50130703  0.00000000  0.50000000  1
  C  C27  1  0.75000000  0.74956016  0.50000000  1
  C  C28  1  0.75000000  0.50000000  0.00000000  1
  C  C29  1  0.50087900  0.74912100  0.00000000  1
  C  C30  1  0.50043984  0.50000000  0.50000000  1
  B  B31  1  0.25000000  0.00000000  0.00000000  1
