# generated using pymatgen
data_Hf8B15C
_symmetry_space_group_name_H-M   'P 1'
_cell_length_a   6.24709132
_cell_length_b   6.24709131
_cell_length_c   6.99722671
_cell_angle_alpha   90.00000000
_cell_angle_beta   90.00000000
_cell_angle_gamma   119.99999993
_symmetry_Int_Tables_number   1
_chemical_formula_structural   Hf8B15C
_chemical_formula_sum   'Hf8 B15 C1'
_cell_volume   236.48973017
_cell_formula_units_Z   1
loop_
 _symmetry_equiv_pos_site_id
 _symmetry_equiv_pos_as_xyz
  1  'x, y, z'
loop_
 _atom_site_type_symbol
 _atom_site_label
 _atom_site_symmetry_multiplicity
 _atom_site_fract_x
 _atom_site_fract_y
 _atom_site_fract_z
 _atom_site_occupancy
  Hf  Hf0  1  0.99995615  0.99997807  0.99936279  1
  Hf  Hf1  1  0.99995615  0.99997807  0.50063721  1
  Hf  Hf2  1  0.00000000  0.50000000  0.00050444  1
  Hf  Hf3  1  0.00000000  0.50000000  0.49949556  1
  Hf  Hf4  1  0.50002193  0.99997807  0.99936279  1
  Hf  Hf5  1  0.50002193  0.99997807  0.50063721  1
  Hf  Hf6  1  0.50002193  0.50004385  0.99936279  1
  Hf  Hf7  1  0.50002193  0.50004385  0.50063721  1
  B  B8  1  0.16780322  0.33219678  0.25000000  1
  B  B9  1  0.33333333  0.16666667  0.25000000  1
  B  B10  1  0.16672651  0.33327349  0.75000000  1
  B  B11  1  0.33333333  0.16666667  0.75000000  1
  B  B12  1  0.16780322  0.83560644  0.25000000  1
  B  B13  1  0.33774129  0.66887065  0.25000000  1
  B  B14  1  0.16672651  0.83345302  0.75000000  1
  B  B15  1  0.33340864  0.66670433  0.75000000  1
  B  B16  1  0.66439356  0.33219678  0.25000000  1
  B  B17  1  0.83112935  0.16225871  0.25000000  1
  B  B18  1  0.66654698  0.33327349  0.75000000  1
  B  B19  1  0.83329567  0.16659136  0.75000000  1
  B  B20  1  0.83112935  0.66887065  0.25000000  1
  B  B21  1  0.66666667  0.83333333  0.75000000  1
  B  B22  1  0.83329567  0.66670433  0.75000000  1
  C  C23  1  0.66666667  0.83333333  0.25000000  1
