# generated using pymatgen
data_Hf2BC3
_symmetry_space_group_name_H-M   'P 1'
_cell_length_a   5.64331970
_cell_length_b   6.60560136
_cell_length_c   6.79706594
_cell_angle_alpha   90.00000000
_cell_angle_beta   90.00000000
_cell_angle_gamma   110.37438284
_symmetry_Int_Tables_number   1
_chemical_formula_structural   Hf2BC3
_chemical_formula_sum   'Hf8 B4 C12'
_cell_volume   237.52587870
_cell_formula_units_Z   4
loop_
 _symmetry_equiv_pos_site_id
 _symmetry_equiv_pos_as_xyz
  1  'x, y, z'
loop_
 _atom_site_type_symbol
 _atom_site_label
 _atom_site_symmetry_multiplicity
 _atom_site_fract_x
 _atom_site_fract_y
 _atom_site_fract_z
 _atom_site_occupancy
  Hf  Hf0  1  0.95219976  0.98137568  0.99959520  1
  Hf  Hf1  1  0.95219976  0.98137568  0.50040480  1
  Hf  Hf2  1  0.02607130  0.51620621  0.02385453  1
  Hf  Hf3  1  0.02607130  0.51620621  0.47614547  1
  Hf  Hf4  1  0.46035701  0.98216898  0.97795296  1
  Hf  Hf5  1  0.46035701  0.98216898  0.52204704  1
  Hf  Hf6  1  0.50620804  0.48680032  0.03239026  1
  Hf  Hf7  1  0.50620804  0.48680032  0.46760974  1
  B  B8  1  0.12136806  0.26844870  0.25000000  1
  B  B9  1  0.16930541  0.84462843  0.25000000  1
  B  B10  1  0.33254657  0.65201724  0.75000000  1
  B  B11  1  0.85045415  0.70182159  0.25000000  1
  C  C12  1  0.29535255  0.11476748  0.25000000  1
  C  C13  1  0.23178095  0.39196260  0.75000000  1
  C  C14  1  0.43857362  0.26258172  0.75000000  1
  C  C15  1  0.35979891  0.71514168  0.25000000  1
  C  C16  1  0.12188889  0.77880552  0.75000000  1
  C  C17  1  0.58875056  0.25058844  0.25000000  1
  C  C18  1  0.82035996  0.19026711  0.25000000  1
  C  C19  1  0.73576464  0.39961836  0.75000000  1
  C  C20  1  0.93729500  0.26725069  0.75000000  1
  C  C21  1  0.63647013  0.80165893  0.25000000  1
  C  C22  1  0.63835032  0.77509058  0.75000000  1
  C  C23  1  0.83226806  0.65224854  0.75000000  1
