# generated using pymatgen
data_Zr4B7C
_symmetry_space_group_name_H-M   'P 1'
_cell_length_a   6.25376261
_cell_length_b   6.26102031
_cell_length_c   7.15101784
_cell_angle_alpha   90.00000000
_cell_angle_beta   90.00000000
_cell_angle_gamma   120.03839751
_symmetry_Int_Tables_number   1
_chemical_formula_structural   Zr4B7C
_chemical_formula_sum   'Zr8 B14 C2'
_cell_volume   242.39118977
_cell_formula_units_Z   2
loop_
 _symmetry_equiv_pos_site_id
 _symmetry_equiv_pos_as_xyz
  1  'x, y, z'
loop_
 _atom_site_type_symbol
 _atom_site_label
 _atom_site_symmetry_multiplicity
 _atom_site_fract_x
 _atom_site_fract_y
 _atom_site_fract_z
 _atom_site_occupancy
  Zr  Zr0  1  0.99983454  0.99991727  0.00177289  1
  Zr  Zr1  1  0.99983454  0.99991727  0.49822711  1
  Zr  Zr2  1  0.99983454  0.49991727  0.00177289  1
  Zr  Zr3  1  0.99983454  0.49991727  0.49822711  1
  Zr  Zr4  1  0.50037128  0.00018564  0.99978378  1
  Zr  Zr5  1  0.50037128  0.00018564  0.50021622  1
  Zr  Zr6  1  0.50037128  0.50018564  0.99978378  1
  Zr  Zr7  1  0.50037128  0.50018564  0.50021622  1
  B  B8  1  0.16669342  0.33334670  0.25000000  1
  B  B9  1  0.33335348  0.16667675  0.25000000  1
  B  B10  1  0.16002407  0.33001203  0.75000000  1
  B  B11  1  0.33088653  0.16544327  0.75000000  1
  B  B12  1  0.16669342  0.83334670  0.25000000  1
  B  B13  1  0.33335348  0.66667675  0.25000000  1
  B  B14  1  0.16002407  0.83001203  0.75000000  1
  B  B15  1  0.33088653  0.66544327  0.75000000  1
  B  B16  1  0.66624944  0.33312471  0.25000000  1
  B  B17  1  0.83338124  0.16669062  0.25000000  1
  B  B18  1  0.67106681  0.33553340  0.75000000  1
  B  B19  1  0.66624944  0.83312471  0.25000000  1
  B  B20  1  0.83338124  0.66669062  0.25000000  1
  B  B21  1  0.67106681  0.83553340  0.75000000  1
  C  C22  1  0.83793337  0.16896669  0.75000000  1
  C  C23  1  0.83793337  0.66896669  0.75000000  1
