# generated using pymatgen
data_Hf8B15C
_symmetry_space_group_name_H-M   'P 1'
_cell_length_a   6.24708996
_cell_length_b   6.24708996
_cell_length_c   6.99722519
_cell_angle_alpha   90.00000000
_cell_angle_beta   90.00000000
_cell_angle_gamma   120.00000002
_symmetry_Int_Tables_number   1
_chemical_formula_structural   Hf8B15C
_chemical_formula_sum   'Hf8 B15 C1'
_cell_volume   236.48957573
_cell_formula_units_Z   1
loop_
 _symmetry_equiv_pos_site_id
 _symmetry_equiv_pos_as_xyz
  1  'x, y, z'
loop_
 _atom_site_type_symbol
 _atom_site_label
 _atom_site_symmetry_multiplicity
 _atom_site_fract_x
 _atom_site_fract_y
 _atom_site_fract_z
 _atom_site_occupancy
  Hf  Hf0  1  0.99997806  0.99995613  0.99936278  1
  Hf  Hf1  1  0.99997806  0.99995613  0.50063722  1
  Hf  Hf2  1  0.99997806  0.50002194  0.99936278  1
  Hf  Hf3  1  0.99997806  0.50002194  0.50063722  1
  Hf  Hf4  1  0.50000000  0.00000000  0.00050444  1
  Hf  Hf5  1  0.50000000  0.00000000  0.49949556  1
  Hf  Hf6  1  0.50004387  0.50002194  0.99936278  1
  Hf  Hf7  1  0.50004387  0.50002194  0.50063722  1
  B  B8  1  0.16666667  0.33333333  0.25000000  1
  B  B9  1  0.33219678  0.16780322  0.25000000  1
  B  B10  1  0.16666667  0.33333333  0.75000000  1
  B  B11  1  0.33327348  0.16672652  0.75000000  1
  B  B12  1  0.16225870  0.83112935  0.25000000  1
  B  B13  1  0.33219678  0.66439357  0.25000000  1
  B  B14  1  0.16659135  0.83329567  0.75000000  1
  B  B15  1  0.33327348  0.66654697  0.75000000  1
  B  B16  1  0.66887065  0.33774130  0.25000000  1
  B  B17  1  0.83560643  0.16780322  0.25000000  1
  B  B18  1  0.66670433  0.33340865  0.75000000  1
  B  B19  1  0.83345303  0.16672652  0.75000000  1
  B  B20  1  0.66887065  0.83112935  0.25000000  1
  B  B21  1  0.66670433  0.83329567  0.75000000  1
  B  B22  1  0.83333333  0.66666667  0.75000000  1
  C  C23  1  0.83333333  0.66666667  0.25000000  1
