# generated using pymatgen
data_Hf16BC15
_symmetry_space_group_name_H-M   'P 1'
_cell_length_a   9.31550666
_cell_length_b   9.31550666
_cell_length_c   4.65491593
_cell_angle_alpha   90.00000000
_cell_angle_beta   90.00000000
_cell_angle_gamma   90.00000000
_symmetry_Int_Tables_number   1
_chemical_formula_structural   Hf16BC15
_chemical_formula_sum   'Hf16 B1 C15'
_cell_volume   403.94738699
_cell_formula_units_Z   1
loop_
 _symmetry_equiv_pos_site_id
 _symmetry_equiv_pos_as_xyz
  1  'x, y, z'
loop_
 _atom_site_type_symbol
 _atom_site_label
 _atom_site_symmetry_multiplicity
 _atom_site_fract_x
 _atom_site_fract_y
 _atom_site_fract_z
 _atom_site_occupancy
  Hf  Hf0  1  0.99992865  0.99992865  0.00000000  1
  Hf  Hf1  1  0.99529728  0.25000000  0.50000000  1
  Hf  Hf2  1  0.25000000  0.99529728  0.50000000  1
  Hf  Hf3  1  0.25000000  0.25000000  0.00000000  1
  Hf  Hf4  1  0.99992865  0.50007135  0.00000000  1
  Hf  Hf5  1  0.99885038  0.75000000  0.50000000  1
  Hf  Hf6  1  0.25000000  0.50470272  0.50000000  1
  Hf  Hf7  1  0.25000000  0.75000000  0.00000000  1
  Hf  Hf8  1  0.50007135  0.99992865  0.00000000  1
  Hf  Hf9  1  0.50470272  0.25000000  0.50000000  1
  Hf  Hf10  1  0.75000000  0.99885038  0.50000000  1
  Hf  Hf11  1  0.75000000  0.25000000  0.00000000  1
  Hf  Hf12  1  0.50007135  0.50007135  0.00000000  1
  Hf  Hf13  1  0.50114962  0.75000000  0.50000000  1
  Hf  Hf14  1  0.75000000  0.50114962  0.50000000  1
  Hf  Hf15  1  0.75000000  0.75000000  0.00000000  1
  B  B16  1  0.25000000  0.25000000  0.50000000  1
  C  C17  1  0.25000000  0.99857389  0.00000000  1
  C  C18  1  0.99857389  0.25000000  0.00000000  1
  C  C19  1  0.99902377  0.99902377  0.50000000  1
  C  C20  1  0.25000000  0.75000000  0.50000000  1
  C  C21  1  0.25000000  0.50142611  0.00000000  1
  C  C22  1  0.99958699  0.75000000  0.00000000  1
  C  C23  1  0.99902377  0.50097623  0.50000000  1
  C  C24  1  0.75000000  0.25000000  0.50000000  1
  C  C25  1  0.75000000  0.99958699  0.00000000  1
  C  C26  1  0.50142611  0.25000000  0.00000000  1
  C  C27  1  0.50097623  0.99902377  0.50000000  1
  C  C28  1  0.75000000  0.75000000  0.50000000  1
  C  C29  1  0.75000000  0.50041301  0.00000000  1
  C  C30  1  0.50041301  0.75000000  0.00000000  1
  C  C31  1  0.50097623  0.50097623  0.50000000  1
