# generated using pymatgen
data_Zr8BC7
_symmetry_space_group_name_H-M   'P 1'
_cell_length_a   9.45766219
_cell_length_b   9.46162161
_cell_length_c   4.73290811
_cell_angle_alpha   90.00000000
_cell_angle_beta   90.00000000
_cell_angle_gamma   90.00000000
_symmetry_Int_Tables_number   1
_chemical_formula_structural   Zr8BC7
_chemical_formula_sum   'Zr16 B2 C14'
_cell_volume   423.52343483
_cell_formula_units_Z   2
loop_
 _symmetry_equiv_pos_site_id
 _symmetry_equiv_pos_as_xyz
  1  'x, y, z'
loop_
 _atom_site_type_symbol
 _atom_site_label
 _atom_site_symmetry_multiplicity
 _atom_site_fract_x
 _atom_site_fract_y
 _atom_site_fract_z
 _atom_site_occupancy
  Zr  Zr0  1  0.99330793  0.00000000  0.00000000  1
  Zr  Zr1  1  0.00016263  0.25546869  0.50000000  1
  Zr  Zr2  1  0.25669205  0.00000000  0.50000000  1
  Zr  Zr3  1  0.24983738  0.25546868  0.00000000  1
  Zr  Zr4  1  0.99858792  0.50000000  0.00000000  1
  Zr  Zr5  1  0.00016263  0.74453131  0.50000000  1
  Zr  Zr6  1  0.25141212  0.50000000  0.50000000  1
  Zr  Zr7  1  0.24983738  0.74453132  0.00000000  1
  Zr  Zr8  1  0.50515235  0.00000000  0.00000000  1
  Zr  Zr9  1  0.50028308  0.25144910  0.50000000  1
  Zr  Zr10  1  0.74484763  0.00000000  0.50000000  1
  Zr  Zr11  1  0.74971691  0.25144909  0.00000000  1
  Zr  Zr12  1  0.50114099  0.50000000  0.00000000  1
  Zr  Zr13  1  0.50028308  0.74855090  0.50000000  1
  Zr  Zr14  1  0.74885900  0.50000000  0.50000000  1
  Zr  Zr15  1  0.74971691  0.74855091  0.00000000  1
  C  C16  1  0.25087257  0.25239105  0.50000000  1
  C  C17  1  0.99912743  0.25239105  0.00000000  1
  C  C18  1  0.25087257  0.74760895  0.50000000  1
  C  C19  1  0.25047642  0.50000000  0.00000000  1
  C  C20  1  0.99912743  0.74760895  0.00000000  1
  C  C21  1  0.99952358  0.50000000  0.50000000  1
  C  C22  1  0.74901821  0.25133269  0.50000000  1
  C  C23  1  0.74868022  0.00000000  0.00000000  1
  C  C24  1  0.50098179  0.25133269  0.00000000  1
  C  C25  1  0.50131977  0.00000000  0.50000000  1
  C  C26  1  0.74901821  0.74866731  0.50000000  1
  C  C27  1  0.74949206  0.50000000  0.00000000  1
  C  C28  1  0.50098179  0.74866731  0.00000000  1
  C  C29  1  0.50050794  0.50000000  0.50000000  1
  B  B30  1  0.24950962  0.00000000  0.00000000  1
  B  B31  1  0.00049038  0.00000000  0.50000000  1
