# generated using pymatgen
data_Hf16BC15
_symmetry_space_group_name_H-M   'P 1'
_cell_length_a   9.31550502
_cell_length_b   9.31550502
_cell_length_c   4.65491585
_cell_angle_alpha   90.00000000
_cell_angle_beta   90.00000000
_cell_angle_gamma   90.00000000
_symmetry_Int_Tables_number   1
_chemical_formula_structural   Hf16BC15
_chemical_formula_sum   'Hf16 B1 C15'
_cell_volume   403.94723781
_cell_formula_units_Z   1
loop_
 _symmetry_equiv_pos_site_id
 _symmetry_equiv_pos_as_xyz
  1  'x, y, z'
loop_
 _atom_site_type_symbol
 _atom_site_label
 _atom_site_symmetry_multiplicity
 _atom_site_fract_x
 _atom_site_fract_y
 _atom_site_fract_z
 _atom_site_occupancy
  Hf  Hf0  1  0.00000000  0.00000000  0.00000000  1
  Hf  Hf1  1  0.00000000  0.25114960  0.50000000  1
  Hf  Hf2  1  0.24529732  0.00000000  0.50000000  1
  Hf  Hf3  1  0.24992867  0.25007133  0.00000000  1
  Hf  Hf4  1  0.00000000  0.50000000  0.00000000  1
  Hf  Hf5  1  0.00000000  0.74885040  0.50000000  1
  Hf  Hf6  1  0.24885040  0.50000000  0.50000000  1
  Hf  Hf7  1  0.24992867  0.74992867  0.00000000  1
  Hf  Hf8  1  0.50000000  0.00000000  0.00000000  1
  Hf  Hf9  1  0.50000000  0.25470268  0.50000000  1
  Hf  Hf10  1  0.75470268  0.00000000  0.50000000  1
  Hf  Hf11  1  0.75007133  0.25007133  0.00000000  1
  Hf  Hf12  1  0.50000000  0.50000000  0.00000000  1
  Hf  Hf13  1  0.50000000  0.74529732  0.50000000  1
  Hf  Hf14  1  0.75114960  0.50000000  0.50000000  1
  Hf  Hf15  1  0.75007133  0.74992867  0.00000000  1
  C  C16  1  0.24902375  0.25097625  0.50000000  1
  C  C17  1  0.24857386  0.00000000  0.00000000  1
  C  C18  1  0.00000000  0.25041303  0.00000000  1
  C  C19  1  0.00000000  0.00000000  0.50000000  1
  C  C20  1  0.24902375  0.74902375  0.50000000  1
  C  C21  1  0.24958697  0.50000000  0.00000000  1
  C  C22  1  0.00000000  0.74958697  0.00000000  1
  C  C23  1  0.00000000  0.50000000  0.50000000  1
  C  C24  1  0.75097625  0.25097625  0.50000000  1
  C  C25  1  0.75142614  0.00000000  0.00000000  1
  C  C26  1  0.50000000  0.25142614  0.00000000  1
  C  C27  1  0.75097625  0.74902375  0.50000000  1
  C  C28  1  0.75041303  0.50000000  0.00000000  1
  C  C29  1  0.50000000  0.74857386  0.00000000  1
  C  C30  1  0.50000000  0.50000000  0.50000000  1
  B  B31  1  0.50000000  0.00000000  0.50000000  1
