# generated using pymatgen
data_Hf8BC7
_symmetry_space_group_name_H-M   'P 1'
_cell_length_a   9.33421898
_cell_length_b   9.33906150
_cell_length_c   4.66356626
_cell_angle_alpha   90.00000000
_cell_angle_beta   90.00000000
_cell_angle_gamma   90.00000000
_symmetry_Int_Tables_number   1
_chemical_formula_structural   Hf8BC7
_chemical_formula_sum   'Hf16 B2 C14'
_cell_volume   406.53633924
_cell_formula_units_Z   2
loop_
 _symmetry_equiv_pos_site_id
 _symmetry_equiv_pos_as_xyz
  1  'x, y, z'
loop_
 _atom_site_type_symbol
 _atom_site_label
 _atom_site_symmetry_multiplicity
 _atom_site_fract_x
 _atom_site_fract_y
 _atom_site_fract_z
 _atom_site_occupancy
  Hf  Hf0  1  0.00000000  0.99895284  0.00000000  1
  Hf  Hf1  1  0.00000000  0.24497225  0.50000000  1
  Hf  Hf2  1  0.25112688  0.99992509  0.50000000  1
  Hf  Hf3  1  0.24503504  0.25001266  0.00000000  1
  Hf  Hf4  1  0.00000000  0.50118626  0.00000000  1
  Hf  Hf5  1  0.00000000  0.75485855  0.50000000  1
  Hf  Hf6  1  0.25496496  0.49998734  0.50000000  1
  Hf  Hf7  1  0.24887312  0.75007491  0.00000000  1
  Hf  Hf8  1  0.50000000  0.99514145  0.00000000  1
  Hf  Hf9  1  0.50000000  0.24881374  0.50000000  1
  Hf  Hf10  1  0.74887312  0.99992509  0.50000000  1
  Hf  Hf11  1  0.75496496  0.25001266  0.00000000  1
  Hf  Hf12  1  0.50000000  0.50502775  0.00000000  1
  Hf  Hf13  1  0.50000000  0.75104716  0.50000000  1
  Hf  Hf14  1  0.74503504  0.49998734  0.50000000  1
  Hf  Hf15  1  0.75112688  0.75007491  0.00000000  1
  C  C16  1  0.24956509  0.24912990  0.50000000  1
  C  C17  1  0.24948409  0.99901803  0.00000000  1
  C  C18  1  0.00000000  0.24854653  0.00000000  1
  C  C19  1  0.00000000  0.99957024  0.50000000  1
  C  C20  1  0.25051591  0.75098197  0.50000000  1
  C  C21  1  0.25043491  0.50087010  0.00000000  1
  C  C22  1  0.00000000  0.75133653  0.00000000  1
  C  C23  1  0.75043491  0.24912990  0.50000000  1
  C  C24  1  0.75051591  0.99901803  0.00000000  1
  C  C25  1  0.50000000  0.99866347  0.50000000  1
  C  C26  1  0.74948409  0.75098197  0.50000000  1
  C  C27  1  0.74956509  0.50087010  0.00000000  1
  C  C28  1  0.50000000  0.75042976  0.00000000  1
  C  C29  1  0.50000000  0.50145347  0.50000000  1
  B  B30  1  0.00000000  0.50022983  0.50000000  1
  B  B31  1  0.50000000  0.24977017  0.00000000  1
