# generated using pymatgen
data_Zr8BC7
_symmetry_space_group_name_H-M   'P 1'
_cell_length_a   9.46061794
_cell_length_b   9.46445772
_cell_length_c   4.73426610
_cell_angle_alpha   90.00000000
_cell_angle_beta   90.00000000
_cell_angle_gamma   90.00000000
_symmetry_Int_Tables_number   1
_chemical_formula_structural   Zr8BC7
_chemical_formula_sum   'Zr16 B2 C14'
_cell_volume   423.90438046
_cell_formula_units_Z   2
loop_
 _symmetry_equiv_pos_site_id
 _symmetry_equiv_pos_as_xyz
  1  'x, y, z'
loop_
 _atom_site_type_symbol
 _atom_site_label
 _atom_site_symmetry_multiplicity
 _atom_site_fract_x
 _atom_site_fract_y
 _atom_site_fract_z
 _atom_site_occupancy
  Zr  Zr0  1  0.99982509  0.00544826  0.00000000  1
  Zr  Zr1  1  0.00139888  0.25000000  0.50000000  1
  Zr  Zr2  1  0.25027173  0.00142636  0.50000000  1
  Zr  Zr3  1  0.25112901  0.25000000  0.00000000  1
  Zr  Zr4  1  0.99982509  0.49455174  0.00000000  1
  Zr  Zr5  1  0.00667357  0.75000000  0.50000000  1
  Zr  Zr6  1  0.25027173  0.49857364  0.50000000  1
  Zr  Zr7  1  0.25515263  0.75000000  0.00000000  1
  Zr  Zr8  1  0.49972827  0.00142636  0.00000000  1
  Zr  Zr9  1  0.49887099  0.25000000  0.50000000  1
  Zr  Zr10  1  0.75017491  0.00544826  0.50000000  1
  Zr  Zr11  1  0.74860112  0.25000000  0.00000000  1
  Zr  Zr12  1  0.49972827  0.49857364  0.00000000  1
  Zr  Zr13  1  0.49484737  0.75000000  0.50000000  1
  Zr  Zr14  1  0.75017491  0.49455174  0.50000000  1
  Zr  Zr15  1  0.74332643  0.75000000  0.00000000  1
  C  C16  1  0.25048334  0.25000000  0.50000000  1
  C  C17  1  0.25098440  0.00130138  0.00000000  1
  C  C18  1  0.00046134  0.25000000  0.00000000  1
  C  C19  1  0.00084717  0.00235923  0.50000000  1
  C  C20  1  0.25129490  0.75000000  0.50000000  1
  C  C21  1  0.25098440  0.49869862  0.00000000  1
  C  C22  1  0.00084717  0.49764077  0.50000000  1
  C  C23  1  0.74953866  0.25000000  0.50000000  1
  C  C24  1  0.74915283  0.00235923  0.00000000  1
  C  C25  1  0.49951666  0.25000000  0.00000000  1
  C  C26  1  0.49901560  0.00130138  0.50000000  1
  C  C27  1  0.74915283  0.49764077  0.00000000  1
  C  C28  1  0.49870510  0.75000000  0.00000000  1
  C  C29  1  0.49901560  0.49869862  0.50000000  1
  B  B30  1  0.99954841  0.75000000  0.00000000  1
  B  B31  1  0.75045159  0.75000000  0.50000000  1
