# generated using pymatgen
data_Zr2Al3V4C3
_symmetry_space_group_name_H-M   'P 1'
_cell_length_a   9.15960201
_cell_length_b   3.05255302
_cell_length_c   13.63249894
_cell_angle_alpha   89.99999998
_cell_angle_beta   90.03272376
_cell_angle_gamma   119.99298322
_symmetry_Int_Tables_number   1
_chemical_formula_structural   Zr2Al3V4C3
_chemical_formula_sum   'Zr4 Al6 V8 C6'
_cell_volume   330.12356976
_cell_formula_units_Z   2
loop_
 _symmetry_equiv_pos_site_id
 _symmetry_equiv_pos_as_xyz
  1  'x, y, z'
loop_
 _atom_site_type_symbol
 _atom_site_label
 _atom_site_symmetry_multiplicity
 _atom_site_fract_x
 _atom_site_fract_y
 _atom_site_fract_z
 _atom_site_occupancy
  Al  Al0  1  0.10308084  0.65462127  0.73654364  1
  Al  Al1  1  0.18384026  0.27576039  0.25027416  1
  Al  Al2  1  0.46294230  0.69441345  0.75935783  1
  Al  Al3  1  0.60393277  0.40589915  0.25156054  1
  Al  Al4  1  0.79178975  0.68768463  0.75521195  1
  Al  Al5  1  0.88981431  0.33472145  0.24795416  1
  V  V6  1  0.09959917  0.64939876  0.08057458  1
  V  V7  1  0.21289268  0.31933902  0.58139129  1
  V  V8  1  0.09864360  0.64796541  0.41897786  1
  V  V9  1  0.55833921  0.33750880  0.92223793  1
  V  V10  1  0.78163714  0.67245571  0.08161656  1
  V  V11  1  0.89201167  0.33801749  0.58057538  1
  V  V12  1  0.88293072  0.32439608  0.91897794  1
  V  V13  1  0.79123304  0.68684956  0.41639089  1
  Zr  Zr14  1  0.21690826  0.32536239  0.90633687  1
  Zr  Zr15  1  0.44337765  0.66506649  0.10051893  1
  Zr  Zr16  1  0.55818945  0.33728417  0.58933830  1
  Zr  Zr17  1  0.43916144  0.65874217  0.40178166  1
  C  C18  1  0.99058958  0.98588438  0.00019378  1
  C  C19  1  0.99979610  0.99969414  0.50182609  1
  C  C20  1  0.33069236  0.99603855  0.00342561  1
  C  C21  1  0.31452938  0.97179407  0.50128938  1
  C  C22  1  0.67101809  0.00652713  0.00157805  1
  C  C23  1  0.68305022  0.02457532  0.49206663  1
