# generated using pymatgen
data_Zr2Al3V4C3
_symmetry_space_group_name_H-M   'P 1'
_cell_length_a   9.09807618
_cell_length_b   3.06153341
_cell_length_c   13.79707114
_cell_angle_alpha   90.00000000
_cell_angle_beta   90.00000000
_cell_angle_gamma   120.31509509
_symmetry_Int_Tables_number   1
_chemical_formula_structural   Zr2Al3V4C3
_chemical_formula_sum   'Zr4 Al6 V8 C6'
_cell_volume   331.75570616
_cell_formula_units_Z   2
loop_
 _symmetry_equiv_pos_site_id
 _symmetry_equiv_pos_as_xyz
  1  'x, y, z'
loop_
 _atom_site_type_symbol
 _atom_site_label
 _atom_site_symmetry_multiplicity
 _atom_site_fract_x
 _atom_site_fract_y
 _atom_site_fract_z
 _atom_site_occupancy
  Al  Al0  1  0.13528717  0.70293077  0.73845285  1
  Al  Al1  1  0.19804616  0.29706923  0.23845285  1
  Al  Al2  1  0.46502942  0.69754414  0.74384685  1
  Al  Al3  1  0.55633869  0.33450802  0.26629084  1
  Al  Al4  1  0.77699465  0.66549198  0.76629084  1
  Al  Al5  1  0.86830391  0.30245586  0.24384685  1
  V  V6  1  0.10643201  0.65964803  0.07943303  1
  V  V7  1  0.22690132  0.34035197  0.57943303  1
  V  V8  1  0.55013559  0.32520338  0.57991226  1
  V  V9  1  0.56117384  0.34176076  0.92119557  1
  V  V10  1  0.44596627  0.66894942  0.41803147  1
  V  V11  1  0.78319775  0.67479662  0.07991226  1
  V  V12  1  0.88736706  0.33105058  0.91803147  1
  V  V13  1  0.77215950  0.65823924  0.42119557  1
  Zr  Zr14  1  0.22551383  0.33827074  0.90610746  1
  Zr  Zr15  1  0.10781950  0.66172926  0.40610746  1
  Zr  Zr16  1  0.45256308  0.67884464  0.09655124  1
  Zr  Zr17  1  0.88077025  0.32115536  0.59655124  1
  C  C18  1  0.99467157  0.99200737  0.99959508  1
  C  C19  1  0.99794512  0.99691767  0.50223740  1
  C  C20  1  0.33538821  0.00308233  0.00223740  1
  C  C21  1  0.33866176  0.00799263  0.49959508  1
  C  C22  1  0.67605249  0.01407874  0.99834595  1
  C  C23  1  0.65728085  0.98592126  0.49834595  1
