# generated using pymatgen
data_Sc2Al3V4C3
_symmetry_space_group_name_H-M   'P 1'
_cell_length_a   9.05114228
_cell_length_b   3.01685640
_cell_length_c   13.72336261
_cell_angle_alpha   90.00000001
_cell_angle_beta   89.90611180
_cell_angle_gamma   119.99790568
_symmetry_Int_Tables_number   1
_chemical_formula_structural   Sc2Al3V4C3
_chemical_formula_sum   'Sc4 Al6 V8 C6'
_cell_volume   324.53204666
_cell_formula_units_Z   2
loop_
 _symmetry_equiv_pos_site_id
 _symmetry_equiv_pos_as_xyz
  1  'x, y, z'
loop_
 _atom_site_type_symbol
 _atom_site_label
 _atom_site_symmetry_multiplicity
 _atom_site_fract_x
 _atom_site_fract_y
 _atom_site_fract_z
 _atom_site_occupancy
  Al  Al0  1  0.09542090  0.64313135  0.74378640  1
  Al  Al1  1  0.22368273  0.33552410  0.23349017  1
  Al  Al2  1  0.45909387  0.68864082  0.75007837  1
  Al  Al3  1  0.55577283  0.33365923  0.23569980  1
  Al  Al4  1  0.77876805  0.66815208  0.75427580  1
  Al  Al5  1  0.89011301  0.33516951  0.23358311  1
  V  V6  1  0.11132979  0.66699469  0.07439217  1
  V  V7  1  0.22179062  0.33268592  0.59462734  1
  V  V8  1  0.44822698  0.67234048  0.07769393  1
  V  V9  1  0.55754139  0.33631206  0.59251776  1
  V  V10  1  0.55867886  0.33801829  0.91837769  1
  V  V11  1  0.77499465  0.66249196  0.07739851  1
  V  V12  1  0.88546791  0.32820186  0.59192066  1
  V  V13  1  0.88433758  0.32650636  0.91796453  1
  Sc  Sc14  1  0.22253094  0.33379640  0.90468195  1
  Sc  Sc15  1  0.11149727  0.66724590  0.41677397  1
  Sc  Sc16  1  0.44339817  0.66509727  0.41677504  1
  Sc  Sc17  1  0.77811916  0.66717874  0.41501933  1
  C  C18  1  0.99209664  0.98814497  0.99805059  1
  C  C19  1  0.99957777  0.99936666  0.51751150  1
  C  C20  1  0.34192485  0.01288728  0.00169139  1
  C  C21  1  0.33324150  0.99986225  0.51928816  1
  C  C22  1  0.66630468  0.99945701  0.99827988  1
  C  C23  1  0.66608986  0.99913479  0.51612195  1
