# generated using pymatgen
data_Sc2Al3V4C3
_symmetry_space_group_name_H-M   'P 1'
_cell_length_a   9.12933078
_cell_length_b   3.02608141
_cell_length_c   13.61269980
_cell_angle_alpha   90.00000002
_cell_angle_beta   89.96886973
_cell_angle_gamma   119.81506218
_symmetry_Int_Tables_number   1
_chemical_formula_structural   Sc2Al3V4C3
_chemical_formula_sum   'Sc4 Al6 V8 C6'
_cell_volume   326.28768602
_cell_formula_units_Z   2
loop_
 _symmetry_equiv_pos_site_id
 _symmetry_equiv_pos_as_xyz
  1  'x, y, z'
loop_
 _atom_site_type_symbol
 _atom_site_label
 _atom_site_symmetry_multiplicity
 _atom_site_fract_x
 _atom_site_fract_y
 _atom_site_fract_z
 _atom_site_occupancy
  Al  Al0  1  0.10993679  0.66490519  0.76520078  1
  Al  Al1  1  0.18641338  0.27962007  0.24576712  1
  Al  Al2  1  0.45475888  0.68213833  0.75701494  1
  Al  Al3  1  0.60735980  0.41103968  0.24571026  1
  Al  Al4  1  0.76555961  0.64833941  0.76441302  1
  Al  Al5  1  0.89203692  0.33805536  0.24829598  1
  V  V6  1  0.10521281  0.65781922  0.07671720  1
  V  V7  1  0.22111332  0.33166998  0.91898452  1
  V  V8  1  0.11058269  0.66587403  0.41770595  1
  V  V9  1  0.54926732  0.32390097  0.57017746  1
  V  V10  1  0.55337286  0.33005927  0.92391876  1
  V  V11  1  0.78581871  0.67872807  0.07704732  1
  V  V12  1  0.88882856  0.33324285  0.91791374  1
  V  V13  1  0.78062239  0.67093359  0.42013397  1
  Sc  Sc14  1  0.22564055  0.33846083  0.59199170  1
  Sc  Sc15  1  0.44255986  0.66383980  0.09555800  1
  Sc  Sc16  1  0.44158157  0.66237237  0.39562815  1
  Sc  Sc17  1  0.88461855  0.32692782  0.59387754  1
  C  C18  1  0.00133957  0.00200935  0.99576918  1
  C  C19  1  0.00026298  0.00039447  0.49296287  1
  C  C20  1  0.32429329  0.98643993  0.99718357  1
  C  C21  1  0.33061562  0.99592343  0.49265890  1
  C  C22  1  0.67387311  0.01080966  0.00028433  1
  C  C23  1  0.66433089  0.99649633  0.49508471  1
