# generated using pymatgen
data_Ta2Al3V4C3
_symmetry_space_group_name_H-M   'P 1'
_cell_length_a   8.94882744
_cell_length_b   2.98758714
_cell_length_c   13.43562286
_cell_angle_alpha   89.99999998
_cell_angle_beta   90.06985737
_cell_angle_gamma   120.05152101
_symmetry_Int_Tables_number   1
_chemical_formula_structural   Ta2Al3V4C3
_chemical_formula_sum   'Ta4 Al6 V8 C6'
_cell_volume   310.92025732
_cell_formula_units_Z   2
loop_
 _symmetry_equiv_pos_site_id
 _symmetry_equiv_pos_as_xyz
  1  'x, y, z'
loop_
 _atom_site_type_symbol
 _atom_site_label
 _atom_site_symmetry_multiplicity
 _atom_site_fract_x
 _atom_site_fract_y
 _atom_site_fract_z
 _atom_site_occupancy
  Al  Al0  1  0.11907894  0.67861841  0.75292797  1
  Al  Al1  1  0.20786504  0.31179756  0.24899928  1
  Al  Al2  1  0.44511758  0.66767638  0.74918479  1
  Al  Al3  1  0.56319310  0.34478965  0.25192896  1
  Al  Al4  1  0.77221303  0.65831956  0.75598579  1
  Al  Al5  1  0.89250745  0.33876117  0.25619968  1
  V  V6  1  0.11088353  0.66632531  0.07938422  1
  V  V7  1  0.22245661  0.33368491  0.58613369  1
  V  V8  1  0.22269193  0.33403790  0.91270496  1
  V  V9  1  0.10982074  0.66473111  0.41805967  1
  V  V10  1  0.55371402  0.33057103  0.58656090  1
  V  V11  1  0.55382053  0.33073079  0.91230790  1
  V  V12  1  0.89176422  0.33764631  0.91173780  1
  V  V13  1  0.77922487  0.66883730  0.41720107  1
  C  C14  1  0.00586968  0.00880452  0.99324922  1
  C  C15  1  0.00417755  0.00626633  0.49824438  1
  C  C16  1  0.32885831  0.99328747  0.99232602  1
  C  C17  1  0.32830297  0.99245446  0.50620179  1
  C  C18  1  0.66692397  0.00038595  0.99123492  1
  C  C19  1  0.66574021  0.99861031  0.50166048  1
  Ta  Ta20  1  0.44111148  0.66166724  0.08740652  1
  Ta  Ta21  1  0.44142295  0.66213444  0.41184774  1
  Ta  Ta22  1  0.78390084  0.67585127  0.08652231  1
  Ta  Ta23  1  0.88934043  0.33401065  0.59198996  1
