# generated using pymatgen
data_Ta2Al3V4C3
_symmetry_space_group_name_H-M   'P 1'
_cell_length_a   8.94857672
_cell_length_b   2.98835774
_cell_length_c   13.44882044
_cell_angle_alpha   90.00000002
_cell_angle_beta   89.99448877
_cell_angle_gamma   120.06100042
_symmetry_Int_Tables_number   1
_chemical_formula_structural   Ta2Al3V4C3
_chemical_formula_sum   'Ta4 Al6 V8 C6'
_cell_volume   311.26772766
_cell_formula_units_Z   2
loop_
 _symmetry_equiv_pos_site_id
 _symmetry_equiv_pos_as_xyz
  1  'x, y, z'
loop_
 _atom_site_type_symbol
 _atom_site_label
 _atom_site_symmetry_multiplicity
 _atom_site_fract_x
 _atom_site_fract_y
 _atom_site_fract_z
 _atom_site_occupancy
  Al  Al0  1  0.11451953  0.67177930  0.75534853  1
  Al  Al1  1  0.22152558  0.33228838  0.24899013  1
  Al  Al2  1  0.44644365  0.66966549  0.76051282  1
  Al  Al3  1  0.54535409  0.31803113  0.24449240  1
  Al  Al4  1  0.78282412  0.67423617  0.74852999  1
  Al  Al5  1  0.89647546  0.34471318  0.24135989  1
  V  V6  1  0.11559557  0.67339336  0.08574285  1
  V  V7  1  0.22401791  0.33602687  0.92030429  1
  V  V8  1  0.11190858  0.66786288  0.41174521  1
  V  V9  1  0.44121391  0.66182087  0.08422549  1
  V  V10  1  0.55358960  0.33038439  0.92035216  1
  V  V11  1  0.44141593  0.66212391  0.41141719  1
  V  V12  1  0.77454107  0.66181162  0.08726665  1
  V  V13  1  0.89022428  0.33533642  0.58246427  1
  Ta  Ta14  1  0.21940550  0.32910825  0.58864470  1
  Ta  Ta15  1  0.55626566  0.33439848  0.58884618  1
  Ta  Ta16  1  0.88794459  0.33191688  0.91540045  1
  Ta  Ta17  1  0.77869698  0.66804548  0.40451530  1
  C  C18  1  0.00449596  0.00674395  0.00825622  1
  C  C19  1  0.99971868  0.99957803  0.49615168  1
  C  C20  1  0.33359741  0.00039612  0.00201411  1
  C  C21  1  0.33271090  0.99906636  0.49184943  1
  C  C22  1  0.66085754  0.99128631  0.00530271  1
  C  C23  1  0.66665748  0.99998621  0.49626732  1
