# generated using pymatgen
data_Sc2Al3V4C3
_symmetry_space_group_name_H-M   'P 1'
_cell_length_a   9.07198308
_cell_length_b   3.02950848
_cell_length_c   13.76006964
_cell_angle_alpha   89.99999998
_cell_angle_beta   89.91504912
_cell_angle_gamma   120.06033786
_symmetry_Int_Tables_number   1
_chemical_formula_structural   Sc2Al3V4C3
_chemical_formula_sum   'Sc4 Al6 V8 C6'
_cell_volume   327.31104153
_cell_formula_units_Z   2
loop_
 _symmetry_equiv_pos_site_id
 _symmetry_equiv_pos_as_xyz
  1  'x, y, z'
loop_
 _atom_site_type_symbol
 _atom_site_label
 _atom_site_symmetry_multiplicity
 _atom_site_fract_x
 _atom_site_fract_y
 _atom_site_fract_z
 _atom_site_occupancy
  Al  Al0  1  0.10059935  0.65089904  0.73511998  1
  Al  Al1  1  0.18282506  0.27423757  0.23311146  1
  Al  Al2  1  0.46617246  0.69925869  0.74373057  1
  Al  Al3  1  0.54042564  0.31063846  0.27224244  1
  Al  Al4  1  0.78484388  0.67726583  0.75052323  1
  Al  Al5  1  0.85746333  0.28619499  0.26685194  1
  V  V6  1  0.11929632  0.67894449  0.06400336  1
  V  V7  1  0.22401608  0.33602412  0.58495123  1
  V  V8  1  0.56496111  0.34744166  0.58808141  1
  V  V9  1  0.55810091  0.33715136  0.91408068  1
  V  V10  1  0.45271565  0.67907348  0.43238555  1
  V  V11  1  0.88679713  0.33019570  0.58656504  1
  V  V12  1  0.88895078  0.33342617  0.91452118  1
  V  V13  1  0.77923252  0.66884877  0.42951405  1
  Sc  Sc14  1  0.22822169  0.34233254  0.89513942  1
  Sc  Sc15  1  0.11669456  0.67504184  0.41302826  1
  Sc  Sc16  1  0.44541778  0.66812667  0.08937867  1
  Sc  Sc17  1  0.78297006  0.67445508  0.08894711  1
  C  C18  1  0.00294260  0.00441390  0.99016339  1
  C  C19  1  0.99592663  0.99388995  0.51009442  1
  C  C20  1  0.33823384  0.00735077  0.99153529  1
  C  C21  1  0.34407162  0.01610744  0.50959565  1
  C  C22  1  0.66896489  0.00344733  0.98874664  1
  C  C23  1  0.67015609  0.00523414  0.50768905  1
