# generated using pymatgen
data_Hf2Al3V4C3
_symmetry_space_group_name_H-M   'P 1'
_cell_length_a   9.06258405
_cell_length_b   3.03132509
_cell_length_c   13.68761494
_cell_angle_alpha   90.00000001
_cell_angle_beta   89.77793229
_cell_angle_gamma   120.11464900
_symmetry_Int_Tables_number   1
_chemical_formula_structural   Hf2Al3V4C3
_chemical_formula_sum   'Hf4 Al6 V8 C6'
_cell_volume   325.26379291
_cell_formula_units_Z   2
loop_
 _symmetry_equiv_pos_site_id
 _symmetry_equiv_pos_as_xyz
  1  'x, y, z'
loop_
 _atom_site_type_symbol
 _atom_site_label
 _atom_site_symmetry_multiplicity
 _atom_site_fract_x
 _atom_site_fract_y
 _atom_site_fract_z
 _atom_site_occupancy
  Al  Al0  1  0.12805616  0.69208424  0.76017399  1
  Al  Al1  1  0.22184008  0.33276012  0.25095883  1
  Al  Al2  1  0.43651910  0.65477867  0.75176626  1
  Al  Al3  1  0.55272395  0.32908592  0.24925237  1
  Al  Al4  1  0.79840592  0.69760889  0.73958258  1
  Al  Al5  1  0.88743971  0.33115955  0.24959829  1
  V  V6  1  0.11261613  0.66892421  0.09533712  1
  V  V7  1  0.22169110  0.33253665  0.93186722  1
  V  V8  1  0.10660860  0.65991290  0.40653785  1
  V  V9  1  0.44240120  0.66360181  0.09260234  1
  V  V10  1  0.44323196  0.66484794  0.40662836  1
  V  V11  1  0.77816952  0.66725428  0.09358861  1
  V  V12  1  0.88430254  0.32645379  0.56723073  1
  V  V13  1  0.77579288  0.66368931  0.40469278  1
  Hf  Hf14  1  0.21225955  0.31838933  0.58238563  1
  Hf  Hf15  1  0.55740494  0.33610741  0.58300115  1
  Hf  Hf16  1  0.55282522  0.32923781  0.91640510  1
  Hf  Hf17  1  0.89586045  0.34379067  0.91873371  1
  C  C18  1  0.00672848  0.01009272  0.01756869  1
  C  C19  1  0.98981057  0.98471584  0.48524326  1
  C  C20  1  0.32755380  0.99133072  0.01352467  1
  C  C21  1  0.33062144  0.99593216  0.48452736  1
  C  C22  1  0.66717426  0.00076138  0.01557208  1
  C  C23  1  0.66996246  0.00494370  0.48322107  1
