# generated using pymatgen
data_Hf2Al3V4C3
_symmetry_space_group_name_H-M   'P 1'
_cell_length_a   9.05099240
_cell_length_b   3.04620631
_cell_length_c   13.72012252
_cell_angle_alpha   90.00000000
_cell_angle_beta   90.00000000
_cell_angle_gamma   120.32077939
_symmetry_Int_Tables_number   1
_chemical_formula_structural   Hf2Al3V4C3
_chemical_formula_sum   'Hf4 Al6 V8 C6'
_cell_volume   326.53612379
_cell_formula_units_Z   2
loop_
 _symmetry_equiv_pos_site_id
 _symmetry_equiv_pos_as_xyz
  1  'x, y, z'
loop_
 _atom_site_type_symbol
 _atom_site_label
 _atom_site_symmetry_multiplicity
 _atom_site_fract_x
 _atom_site_fract_y
 _atom_site_fract_z
 _atom_site_occupancy
  Al  Al0  1  0.12791595  0.69187393  0.75925829  1
  Al  Al1  1  0.20541738  0.30812607  0.25925829  1
  Al  Al2  1  0.46196102  0.69294155  0.75571960  1
  Al  Al3  1  0.55580280  0.33370419  0.23565514  1
  Al  Al4  1  0.77753054  0.66629581  0.73565514  1
  Al  Al5  1  0.87137231  0.30705845  0.25571960  1
  Hf  Hf6  1  0.10829495  0.66244244  0.09282659  1
  Hf  Hf7  1  0.22503838  0.33755756  0.59282659  1
  Hf  Hf8  1  0.45291512  0.67937268  0.40519221  1
  Hf  Hf9  1  0.88041821  0.32062732  0.90519221  1
  V  V10  1  0.22538547  0.33807820  0.91880563  1
  V  V11  1  0.10794786  0.66192180  0.41880563  1
  V  V12  1  0.44457603  0.66686404  0.08242414  1
  V  V13  1  0.56084581  0.34126871  0.58061164  1
  V  V14  1  0.55087718  0.32631576  0.91955842  1
  V  V15  1  0.77248753  0.65873129  0.08061164  1
  V  V16  1  0.88875730  0.33313596  0.58242414  1
  V  V17  1  0.78245616  0.67368424  0.41955842  1
  C  C18  1  0.99756559  0.99634839  0.99822322  1
  C  C19  1  0.99579253  0.99368879  0.49969452  1
  C  C20  1  0.33754080  0.00631121  0.99969452  1
  C  C21  1  0.33576774  0.00365161  0.49822322  1
  C  C22  1  0.65760614  0.98640920  0.00203060  1
  C  C23  1  0.67572720  0.01359080  0.50203060  1
