# generated using pymatgen
data_Ta2Al3V4C3
_symmetry_space_group_name_H-M   'P 1'
_cell_length_a   8.93208065
_cell_length_b   2.98622170
_cell_length_c   13.49314614
_cell_angle_alpha   89.99999998
_cell_angle_beta   89.79664541
_cell_angle_gamma   120.09850383
_symmetry_Int_Tables_number   1
_chemical_formula_structural   Ta2Al3V4C3
_chemical_formula_sum   'Ta4 Al6 V8 C6'
_cell_volume   311.37443396
_cell_formula_units_Z   2
loop_
 _symmetry_equiv_pos_site_id
 _symmetry_equiv_pos_as_xyz
  1  'x, y, z'
loop_
 _atom_site_type_symbol
 _atom_site_label
 _atom_site_symmetry_multiplicity
 _atom_site_fract_x
 _atom_site_fract_y
 _atom_site_fract_z
 _atom_site_occupancy
  Al  Al0  1  0.11955671  0.67933507  0.74713954  1
  Al  Al1  1  0.21752146  0.32628219  0.25408496  1
  Al  Al2  1  0.44223539  0.66335310  0.75679876  1
  Al  Al3  1  0.55776461  0.33664690  0.24320124  1
  Al  Al4  1  0.78247854  0.67371781  0.74591504  1
  Al  Al5  1  0.88044329  0.32066493  0.25286046  1
  Ta  Ta6  1  0.11228552  0.66842828  0.09069598  1
  Ta  Ta7  1  0.55487778  0.33231666  0.59061604  1
  Ta  Ta8  1  0.44512222  0.66768334  0.40938396  1
  Ta  Ta9  1  0.88771448  0.33157172  0.90930402  1
  V  V10  1  0.21717585  0.32576379  0.58391089  1
  V  V11  1  0.22680494  0.34020740  0.91614936  1
  V  V12  1  0.10686890  0.66030336  0.41693850  1
  V  V13  1  0.44589169  0.66883754  0.08341837  1
  V  V14  1  0.55410831  0.33116246  0.91658163  1
  V  V15  1  0.77319506  0.65979260  0.08385064  1
  V  V16  1  0.89313110  0.33969664  0.58306150  1
  V  V17  1  0.78282415  0.67423621  0.41608911  1
  C  C18  1  0.00000000  0.00000000  0.00000000  1
  C  C19  1  0.00000000  0.00000000  0.50000000  1
  C  C20  1  0.33801475  0.00702215  0.99891762  1
  C  C21  1  0.32334369  0.98501555  0.50212515  1
  C  C22  1  0.66198525  0.99297785  0.00108238  1
  C  C23  1  0.67665631  0.01498445  0.49787485  1
