# generated using pymatgen
data_Nb2Al3V4C3
_symmetry_space_group_name_H-M   'P 1'
_cell_length_a   8.95827908
_cell_length_b   2.98708427
_cell_length_c   13.45196108
_cell_angle_alpha   89.99999998
_cell_angle_beta   90.04939135
_cell_angle_gamma   120.01098173
_symmetry_Int_Tables_number   1
_chemical_formula_structural   Nb2Al3V4C3
_chemical_formula_sum   'Nb4 Al6 V8 C6'
_cell_volume   311.70230367
_cell_formula_units_Z   2
loop_
 _symmetry_equiv_pos_site_id
 _symmetry_equiv_pos_as_xyz
  1  'x, y, z'
loop_
 _atom_site_type_symbol
 _atom_site_label
 _atom_site_symmetry_multiplicity
 _atom_site_fract_x
 _atom_site_fract_y
 _atom_site_fract_z
 _atom_site_occupancy
  Al  Al0  1  0.11222341  0.66833513  0.75953925  1
  Al  Al1  1  0.22727553  0.34091330  0.25372796  1
  Al  Al2  1  0.45169880  0.67754820  0.75528619  1
  Al  Al3  1  0.54834620  0.32251929  0.24428374  1
  Al  Al4  1  0.77120419  0.65680628  0.75698849  1
  Al  Al5  1  0.88566513  0.32849768  0.24473217  1
  Nb  Nb6  1  0.11303688  0.66955532  0.08727173  1
  Nb  Nb7  1  0.22707029  0.34060544  0.59050291  1
  Nb  Nb8  1  0.88619509  0.32929263  0.59154631  1
  Nb  Nb9  1  0.77451268  0.66176902  0.40843079  1
  V  V10  1  0.22530684  0.33796026  0.91603849  1
  V  V11  1  0.11505319  0.67257979  0.41377060  1
  V  V12  1  0.44751818  0.67127728  0.08130255  1
  V  V13  1  0.55255814  0.32883718  0.58427832  1
  V  V14  1  0.55750262  0.33625392  0.91762199  1
  V  V15  1  0.44339070  0.66508607  0.41457747  1
  V  V16  1  0.77539333  0.66308999  0.08148133  1
  V  V17  1  0.88523207  0.32784811  0.91605478  1
  C  C18  1  0.99510793  0.99266189  0.99419608  1
  C  C19  1  0.00535206  0.00802809  0.49507186  1
  C  C20  1  0.33951682  0.00927522  0.99732885  1
  C  C21  1  0.33809380  0.00714071  0.49429691  1
  C  C22  1  0.66688027  0.00032040  0.99929457  1
  C  C23  1  0.65586587  0.98379880  0.50237663  1
