# generated using pymatgen
data_Nb2Al3V4C3
_symmetry_space_group_name_H-M   'P 1'
_cell_length_a   8.95994956
_cell_length_b   2.98851981
_cell_length_c   13.43767403
_cell_angle_alpha   89.99999999
_cell_angle_beta   90.11926650
_cell_angle_gamma   120.02071359
_symmetry_Int_Tables_number   1
_chemical_formula_structural   Nb2Al3V4C3
_chemical_formula_sum   'Nb4 Al6 V8 C6'
_cell_volume   311.54766221
_cell_formula_units_Z   2
loop_
 _symmetry_equiv_pos_site_id
 _symmetry_equiv_pos_as_xyz
  1  'x, y, z'
loop_
 _atom_site_type_symbol
 _atom_site_label
 _atom_site_symmetry_multiplicity
 _atom_site_fract_x
 _atom_site_fract_y
 _atom_site_fract_z
 _atom_site_occupancy
  Al  Al0  1  0.11197894  0.66796840  0.74772467  1
  Al  Al1  1  0.23122235  0.34683354  0.25382334  1
  Al  Al2  1  0.43796928  0.65695393  0.74210113  1
  Al  Al3  1  0.55894630  0.33841945  0.25824029  1
  Al  Al4  1  0.78576905  0.67865357  0.74540069  1
  Al  Al5  1  0.87416788  0.31125181  0.25215094  1
  Nb  Nb6  1  0.10648568  0.65972854  0.08933874  1
  Nb  Nb7  1  0.10953053  0.66429580  0.41323610  1
  Nb  Nb8  1  0.44947567  0.67421352  0.08861368  1
  Nb  Nb9  1  0.55709909  0.33564862  0.90510227  1
  V  V10  1  0.22238756  0.33358133  0.58476368  1
  V  V11  1  0.21735560  0.32603339  0.91213892  1
  V  V12  1  0.55668590  0.33502884  0.58584759  1
  V  V13  1  0.44837882  0.67256823  0.42095089  1
  V  V14  1  0.77998184  0.66997276  0.08138076  1
  V  V15  1  0.88736179  0.33104269  0.58563342  1
  V  V16  1  0.89145251  0.33717877  0.91225031  1
  V  V17  1  0.77374454  0.66061680  0.42154072  1
  C  C18  1  0.99535118  0.99302676  0.99300430  1
  C  C19  1  0.99421475  0.99132213  0.50674600  1
  C  C20  1  0.32761974  0.99142962  0.99326251  1
  C  C21  1  0.33800670  0.00701005  0.50405037  1
  C  C22  1  0.67806403  0.01709604  0.99849340  1
  C  C23  1  0.66675028  0.00012541  0.50420527  1
