# generated using pymatgen
data_Ti2Al3V4C3
_symmetry_space_group_name_H-M   'P 1'
_cell_length_a   8.86747115
_cell_length_b   2.95475536
_cell_length_c   13.33889963
_cell_angle_alpha   89.99999999
_cell_angle_beta   90.00462618
_cell_angle_gamma   119.98804449
_symmetry_Int_Tables_number   1
_chemical_formula_structural   Ti2Al3V4C3
_chemical_formula_sum   'Ti4 Al6 V8 C6'
_cell_volume   302.70824832
_cell_formula_units_Z   2
loop_
 _symmetry_equiv_pos_site_id
 _symmetry_equiv_pos_as_xyz
  1  'x, y, z'
loop_
 _atom_site_type_symbol
 _atom_site_label
 _atom_site_symmetry_multiplicity
 _atom_site_fract_x
 _atom_site_fract_y
 _atom_site_fract_z
 _atom_site_occupancy
  Al  Al0  1  0.11556759  0.67335139  0.74594317  1
  Al  Al1  1  0.22319947  0.33479920  0.25810086  1
  Al  Al2  1  0.44068559  0.66102840  0.74382319  1
  Al  Al3  1  0.55931441  0.33897160  0.25617681  1
  Al  Al4  1  0.77680053  0.66520080  0.74189914  1
  Al  Al5  1  0.88443241  0.32664861  0.25405683  1
  Ti  Ti6  1  0.10941002  0.66411503  0.08979239  1
  Ti  Ti7  1  0.44487849  0.66731774  0.08816795  1
  Ti  Ti8  1  0.55512151  0.33268226  0.91183205  1
  Ti  Ti9  1  0.89058998  0.33588497  0.91020761  1
  V  V10  1  0.22226790  0.33340185  0.58161213  1
  V  V11  1  0.21963650  0.32945477  0.91626635  1
  V  V12  1  0.10994543  0.66491816  0.41698972  1
  V  V13  1  0.55422690  0.33134035  0.58277650  1
  V  V14  1  0.44577310  0.66865965  0.41722350  1
  V  V15  1  0.78036350  0.67054523  0.08373365  1
  V  V16  1  0.89005457  0.33508184  0.58301028  1
  V  V17  1  0.77773210  0.66659815  0.41838787  1
  C  C18  1  0.00000000  0.00000000  0.00000000  1
  C  C19  1  0.00000000  0.00000000  0.50000000  1
  C  C20  1  0.32952136  0.99428205  0.99861488  1
  C  C21  1  0.33320213  0.99980320  0.49910847  1
  C  C22  1  0.67047864  0.00571795  0.00138512  1
  C  C23  1  0.66679787  0.00019680  0.50089153  1
