# generated using pymatgen
data_Ti7MoC8
_symmetry_space_group_name_H-M   'P 1'
_cell_length_a   6.14220876
_cell_length_b   6.13111839
_cell_length_c   8.65054595
_cell_angle_alpha   90.00000000
_cell_angle_beta   90.00000000
_cell_angle_gamma   90.00000000
_symmetry_Int_Tables_number   1
_chemical_formula_structural   Ti7MoC8
_chemical_formula_sum   'Ti14 Mo2 C16'
_cell_volume   325.76752829
_cell_formula_units_Z   2
loop_
 _symmetry_equiv_pos_site_id
 _symmetry_equiv_pos_as_xyz
  1  'x, y, z'
loop_
 _atom_site_type_symbol
 _atom_site_label
 _atom_site_symmetry_multiplicity
 _atom_site_fract_x
 _atom_site_fract_y
 _atom_site_fract_z
 _atom_site_occupancy
  C  C0  1  0.75017666  0.75000000  0.50000000  1
  C  C1  1  0.75017666  0.25000000  0.50000000  1
  C  C2  1  0.24982334  0.75000000  0.50000000  1
  C  C3  1  0.24982334  0.25000000  0.50000000  1
  C  C4  1  0.50000000  0.50000000  0.24920263  1
  C  C5  1  0.50000000  0.00000000  0.24920263  1
  C  C6  1  0.75050062  0.75000000  0.00000000  1
  C  C7  1  0.75050062  0.25000000  0.00000000  1
  C  C8  1  0.00000000  0.50000000  0.24949539  1
  C  C9  1  0.00000000  0.00000000  0.24949539  1
  C  C10  1  0.24949938  0.75000000  0.00000000  1
  C  C11  1  0.24949938  0.25000000  0.00000000  1
  C  C12  1  0.50000000  0.50000000  0.75079737  1
  C  C13  1  0.50000000  0.00000000  0.75079737  1
  C  C14  1  0.00000000  0.50000000  0.75050461  1
  C  C15  1  0.00000000  0.00000000  0.75050461  1
  Ti  Ti16  1  0.75078821  0.25000000  0.74867638  1
  Ti  Ti17  1  0.75078821  0.75000000  0.74867638  1
  Ti  Ti18  1  0.24921179  0.25000000  0.74867638  1
  Ti  Ti19  1  0.24921179  0.75000000  0.74867638  1
  Ti  Ti20  1  0.50000000  0.00000000  0.50000000  1
  Ti  Ti21  1  0.50000000  0.50000000  0.50000000  1
  Ti  Ti22  1  0.75078821  0.25000000  0.25132362  1
  Ti  Ti23  1  0.00000000  0.00000000  0.50000000  1
  Ti  Ti24  1  0.00000000  0.50000000  0.50000000  1
  Ti  Ti25  1  0.24921179  0.75000000  0.25132362  1
  Ti  Ti26  1  0.00000000  0.00000000  0.00000000  1
  Ti  Ti27  1  0.00000000  0.50000000  0.00000000  1
  Ti  Ti28  1  0.75078821  0.75000000  0.25132362  1
  Ti  Ti29  1  0.24921179  0.25000000  0.25132362  1
  Mo  Mo30  1  0.50000000  0.00000000  0.00000000  1
  Mo  Mo31  1  0.50000000  0.50000000  0.00000000  1
