# generated using pymatgen
data_Ti11Mo5C16
_symmetry_space_group_name_H-M   'P 1'
_cell_length_a   6.13270699
_cell_length_b   6.13270699
_cell_length_c   8.67718868
_cell_angle_alpha   90.00000000
_cell_angle_beta   90.00000000
_cell_angle_gamma   90.08926025
_symmetry_Int_Tables_number   1
_chemical_formula_structural   Ti11Mo5C16
_chemical_formula_sum   'Ti11 Mo5 C16'
_cell_volume   326.34949489
_cell_formula_units_Z   1
loop_
 _symmetry_equiv_pos_site_id
 _symmetry_equiv_pos_as_xyz
  1  'x, y, z'
loop_
 _atom_site_type_symbol
 _atom_site_label
 _atom_site_symmetry_multiplicity
 _atom_site_fract_x
 _atom_site_fract_y
 _atom_site_fract_z
 _atom_site_occupancy
  C  C0  1  0.75097479  0.75097479  0.50063411  1
  C  C1  1  0.75097167  0.24902833  0.49825029  1
  C  C2  1  0.24902833  0.75097167  0.49825029  1
  C  C3  1  0.24902521  0.24902521  0.50063411  1
  C  C4  1  0.50000000  0.50000000  0.25157577  1
  C  C5  1  0.50000000  -0.00000000  0.25167343  1
  C  C6  1  0.75134300  0.75134300  0.99717278  1
  C  C7  1  0.75197001  0.24802999  0.00058549  1
  C  C8  1  0.00000000  0.50000000  0.25167343  1
  C  C9  1  0.00000000  -0.00000000  0.25017996  1
  C  C10  1  0.24802999  0.75197001  0.00058549  1
  C  C11  1  0.24865700  0.24865700  0.99717278  1
  C  C12  1  0.50000000  0.50000000  0.75008803  1
  C  C13  1  0.50000000  -0.00000000  0.74909353  1
  C  C14  1  0.00000000  0.50000000  0.74909353  1
  C  C15  1  0.00000000  -0.00000000  0.75092117  1
  Ti  Ti16  1  0.74966949  0.25033051  0.74976067  1
  Ti  Ti17  1  0.75073906  0.75073906  0.74659754  1
  Ti  Ti18  1  0.24926094  0.24926094  0.74659754  1
  Ti  Ti19  1  0.25033051  0.74966949  0.74976067  1
  Ti  Ti20  1  0.50000000  -0.00000000  0.50254617  1
  Ti  Ti21  1  0.50000000  0.50000000  0.50224084  1
  Ti  Ti22  1  0.75108144  0.24891856  0.25291073  1
  Ti  Ti23  1  0.00000000  -0.00000000  0.50096170  1
  Ti  Ti24  1  0.00000000  0.50000000  0.50254617  1
  Ti  Ti25  1  0.24891856  0.75108144  0.25291073  1
  Ti  Ti26  1  0.00000000  -0.00000000  0.99747952  1
  Mo  Mo27  1  0.00000000  0.50000000  0.99628194  1
  Mo  Mo28  1  0.74572511  0.74572511  0.25413823  1
  Mo  Mo29  1  0.25427489  0.25427489  0.25413823  1
  Mo  Mo30  1  0.50000000  -0.00000000  0.99628194  1
  Mo  Mo31  1  0.50000000  0.50000000  0.99726316  1
