# generated using pymatgen
data_Ti11V5C16
_symmetry_space_group_name_H-M   'P 1'
_cell_length_a   6.05330095
_cell_length_b   6.05330095
_cell_length_c   8.54029827
_cell_angle_alpha   90.00000000
_cell_angle_beta   90.00000000
_cell_angle_gamma   90.02914614
_symmetry_Int_Tables_number   1
_chemical_formula_structural   Ti11V5C16
_chemical_formula_sum   'Ti11 V5 C16'
_cell_volume   312.93743244
_cell_formula_units_Z   1
loop_
 _symmetry_equiv_pos_site_id
 _symmetry_equiv_pos_as_xyz
  1  'x, y, z'
loop_
 _atom_site_type_symbol
 _atom_site_label
 _atom_site_symmetry_multiplicity
 _atom_site_fract_x
 _atom_site_fract_y
 _atom_site_fract_z
 _atom_site_occupancy
  C  C0  1  0.74988008  0.74988008  0.49610282  1
  C  C1  1  0.74985111  0.25014889  0.49807072  1
  C  C2  1  0.25014889  0.74985111  0.49807072  1
  C  C3  1  0.25011992  0.25011992  0.49610282  1
  C  C4  1  0.50000000  0.50000000  0.24489171  1
  C  C5  1  0.50000000  -0.00000000  0.24521850  1
  C  C6  1  0.74693116  0.74693116  0.00371443  1
  C  C7  1  0.74696601  0.25303399  0.00121384  1
  C  C8  1  -0.00000000  0.50000000  0.24521850  1
  C  C9  1  -0.00000000  -0.00000000  0.24829102  1
  C  C10  1  0.25303399  0.74696601  0.00121384  1
  C  C11  1  0.25306884  0.25306884  0.00371443  1
  C  C12  1  0.50000000  0.50000000  0.75563320  1
  C  C13  1  0.50000000  -0.00000000  0.75496689  1
  C  C14  1  -0.00000000  0.50000000  0.75496689  1
  C  C15  1  -0.00000000  -0.00000000  0.75222026  1
  Ti  Ti16  1  0.74967242  0.25032758  0.75237949  1
  Ti  Ti17  1  0.74969229  0.74969229  0.75152548  1
  Ti  Ti18  1  0.25030771  0.25030771  0.75152548  1
  Ti  Ti19  1  0.25032758  0.74967242  0.75237949  1
  Ti  Ti20  1  0.50000000  -0.00000000  0.49900423  1
  Ti  Ti21  1  0.50000000  0.50000000  0.49864678  1
  Ti  Ti22  1  0.74952640  0.25047360  0.24831223  1
  Ti  Ti23  1  -0.00000000  -0.00000000  0.49877668  1
  Ti  Ti24  1  -0.00000000  0.50000000  0.49900423  1
  Ti  Ti25  1  0.25047360  0.74952640  0.24831223  1
  Ti  Ti26  1  -0.00000000  -0.00000000  0.00111146  1
  V  V27  1  -0.00000000  0.50000000  0.00099979  1
  V  V28  1  0.74947372  0.74947372  0.24820383  1
  V  V29  1  0.25052628  0.25052628  0.24820383  1
  V  V30  1  0.50000000  -0.00000000  0.00099979  1
  V  V31  1  0.50000000  0.50000000  0.00100438  1
