# generated using pymatgen
data_Ti13V3C16
_symmetry_space_group_name_H-M   'P 1'
_cell_length_a   6.08335685
_cell_length_b   6.07963940
_cell_length_c   8.58975246
_cell_angle_alpha   90.00000000
_cell_angle_beta   89.97771470
_cell_angle_gamma   90.00000000
_symmetry_Int_Tables_number   1
_chemical_formula_structural   Ti13V3C16
_chemical_formula_sum   'Ti13 V3 C16'
_cell_volume   317.68867214
_cell_formula_units_Z   1
loop_
 _symmetry_equiv_pos_site_id
 _symmetry_equiv_pos_as_xyz
  1  'x, y, z'
loop_
 _atom_site_type_symbol
 _atom_site_label
 _atom_site_symmetry_multiplicity
 _atom_site_fract_x
 _atom_site_fract_y
 _atom_site_fract_z
 _atom_site_occupancy
  C  C0  1  0.74966410  0.75000000  0.49955867  1
  C  C1  1  0.74970726  0.25000000  0.49917210  1
  C  C2  1  0.25045467  0.75000000  0.49918382  1
  C  C3  1  0.25026328  0.25000000  0.49600750  1
  C  C4  1  0.49675312  0.49677406  0.24560529  1
  C  C5  1  0.49675312  0.00322594  0.24560529  1
  C  C6  1  0.74335442  0.75000000  0.00041891  1
  C  C7  1  0.74343958  0.25000000  0.00067315  1
  C  C8  1  0.00345942  0.49656275  0.24878774  1
  C  C9  1  0.00345942  0.00343725  0.24878774  1
  C  C10  1  0.25644796  0.75000000  0.00067833  1
  C  C11  1  0.25625840  0.25000000  0.00340499  1
  C  C12  1  0.49986578  0.49990712  0.75484907  1
  C  C13  1  0.49986578  0.00009288  0.75484907  1
  C  C14  1  0.00015605  0.49978028  0.75128617  1
  C  C15  1  0.00015605  0.00021972  0.75128617  1
  Ti  Ti16  1  0.74929767  0.25000000  0.75117026  1
  Ti  Ti17  1  0.74941029  0.75000000  0.75092518  1
  Ti  Ti18  1  0.25058045  0.25000000  0.75090544  1
  Ti  Ti19  1  0.25066804  0.75000000  0.75117453  1
  Ti  Ti20  1  0.49974634  0.00027050  0.49953143  1
  Ti  Ti21  1  0.49974634  0.49972950  0.49953143  1
  Ti  Ti22  1  0.74879234  0.25000000  0.24904010  1
  Ti  Ti23  1  0.00031181  0.00029761  0.49956783  1
  Ti  Ti24  1  0.00031181  0.49970239  0.49956783  1
  Ti  Ti25  1  0.25090179  0.75000000  0.24902552  1
  Ti  Ti26  1  0.00074573  0.00057188  0.00046140  1
  Ti  Ti27  1  0.00074573  0.49942812  0.00046140  1
  Ti  Ti28  1  0.74882513  0.75000000  0.24887457  1
  V  V29  1  0.25061481  0.25000000  0.24935916  1
  V  V30  1  0.49962165  0.00061160  0.00012495  1
  V  V31  1  0.49962165  0.49938840  0.00012495  1
