# generated using pymatgen
data_Ti13W3C16
_symmetry_space_group_name_H-M   'P 1'
_cell_length_a   6.13973814
_cell_length_b   6.13408177
_cell_length_c   8.66801173
_cell_angle_alpha   90.00000000
_cell_angle_beta   89.98264399
_cell_angle_gamma   90.00000000
_symmetry_Int_Tables_number   1
_chemical_formula_structural   Ti13W3C16
_chemical_formula_sum   'Ti13 W3 C16'
_cell_volume   326.45165916
_cell_formula_units_Z   1
loop_
 _symmetry_equiv_pos_site_id
 _symmetry_equiv_pos_as_xyz
  1  'x, y, z'
loop_
 _atom_site_type_symbol
 _atom_site_label
 _atom_site_symmetry_multiplicity
 _atom_site_fract_x
 _atom_site_fract_y
 _atom_site_fract_z
 _atom_site_occupancy
  C  C0  1  0.75027560  0.75000000  0.50008871  1
  C  C1  1  0.74998192  0.25000000  0.49948492  1
  C  C2  1  0.25013270  0.75000000  0.49947781  1
  C  C3  1  0.24914983  0.25000000  0.49919555  1
  C  C4  1  0.49981035  0.49995239  0.24931436  1
  C  C5  1  0.49981035  0.00004761  0.24931436  1
  C  C6  1  0.74907487  0.75000000  0.99911063  1
  C  C7  1  0.74934745  0.25000000  0.00010117  1
  C  C8  1  0.00126674  0.49866478  0.25008280  1
  C  C9  1  0.00126674  0.00133522  0.25008280  1
  C  C10  1  0.25049272  0.75000000  0.00005567  1
  C  C11  1  0.24966411  0.25000000  0.99956658  1
  C  C12  1  0.50023200  0.50030369  0.75152482  1
  C  C13  1  0.50023200  0.99969631  0.75152482  1
  C  C14  1  0.99995705  0.50001947  0.75046522  1
  C  C15  1  0.99995705  0.99998053  0.75046522  1
  Ti  Ti16  1  0.75143228  0.25000000  0.74817201  1
  Ti  Ti17  1  0.75177849  0.75000000  0.74729906  1
  Ti  Ti18  1  0.24779127  0.25000000  0.74691281  1
  Ti  Ti19  1  0.24836114  0.75000000  0.74813838  1
  Ti  Ti20  1  0.50122662  0.99893261  0.50139406  1
  Ti  Ti21  1  0.50122662  0.50106739  0.50139406  1
  Ti  Ti22  1  0.75011990  0.25000000  0.25268916  1
  Ti  Ti23  1  0.99909478  0.99900739  0.50143050  1
  Ti  Ti24  1  0.99909478  0.50099261  0.50143050  1
  Ti  Ti25  1  0.25020419  0.75000000  0.25278697  1
  Ti  Ti26  1  0.99962162  0.99980567  0.99838902  1
  Ti  Ti27  1  0.99962162  0.50019433  0.99838902  1
  Ti  Ti28  1  0.75126883  0.75000000  0.25256085  1
  W  W29  1  0.24745459  0.25000000  0.25566497  1
  W  W30  1  0.50052587  0.99922754  0.99674662  1
  W  W31  1  0.50052587  0.50077246  0.99674662  1
