# generated using pymatgen
data_Ti7VC8
_symmetry_space_group_name_H-M   'P 1'
_cell_length_a   6.10278992
_cell_length_b   6.09647514
_cell_length_c   8.61238005
_cell_angle_alpha   90.00000000
_cell_angle_beta   90.00000000
_cell_angle_gamma   90.00000000
_symmetry_Int_Tables_number   1
_chemical_formula_structural   Ti7VC8
_chemical_formula_sum   'Ti14 V2 C16'
_cell_volume   320.42796651
_cell_formula_units_Z   2
loop_
 _symmetry_equiv_pos_site_id
 _symmetry_equiv_pos_as_xyz
  1  'x, y, z'
loop_
 _atom_site_type_symbol
 _atom_site_label
 _atom_site_symmetry_multiplicity
 _atom_site_fract_x
 _atom_site_fract_y
 _atom_site_fract_z
 _atom_site_occupancy
  C  C0  1  0.74952059  0.75000000  0.50000000  1
  C  C1  1  0.74952059  0.25000000  0.50000000  1
  C  C2  1  0.25047941  0.75000000  0.50000000  1
  C  C3  1  0.25047941  0.25000000  0.50000000  1
  C  C4  1  0.50000000  0.50000000  0.24521955  1
  C  C5  1  0.50000000  0.00000000  0.24521955  1
  C  C6  1  0.74335032  0.75000000  0.00000000  1
  C  C7  1  0.74335032  0.25000000  0.00000000  1
  C  C8  1  0.00000000  0.50000000  0.24877703  1
  C  C9  1  0.00000000  0.00000000  0.24877703  1
  C  C10  1  0.25664968  0.75000000  0.00000000  1
  C  C11  1  0.25664968  0.25000000  0.00000000  1
  C  C12  1  0.50000000  0.50000000  0.75478045  1
  C  C13  1  0.50000000  0.00000000  0.75478045  1
  C  C14  1  0.00000000  0.50000000  0.75122297  1
  C  C15  1  0.00000000  0.00000000  0.75122297  1
  Ti  Ti16  1  0.74923395  0.25000000  0.75094851  1
  Ti  Ti17  1  0.74923395  0.75000000  0.75094851  1
  Ti  Ti18  1  0.25076605  0.25000000  0.75094851  1
  Ti  Ti19  1  0.25076605  0.75000000  0.75094851  1
  Ti  Ti20  1  0.50000000  0.00000000  0.50000000  1
  Ti  Ti21  1  0.50000000  0.50000000  0.50000000  1
  Ti  Ti22  1  0.74923395  0.25000000  0.24905149  1
  Ti  Ti23  1  0.00000000  0.00000000  0.50000000  1
  Ti  Ti24  1  0.00000000  0.50000000  0.50000000  1
  Ti  Ti25  1  0.25076605  0.75000000  0.24905149  1
  Ti  Ti26  1  0.00000000  0.00000000  0.00000000  1
  Ti  Ti27  1  0.00000000  0.50000000  0.00000000  1
  Ti  Ti28  1  0.74923395  0.75000000  0.24905149  1
  Ti  Ti29  1  0.25076605  0.25000000  0.24905149  1
  V  V30  1  0.50000000  0.00000000  0.00000000  1
  V  V31  1  0.50000000  0.50000000  0.00000000  1
