# generated using pymatgen
data_Ti13Mo3C16
_symmetry_space_group_name_H-M   'P 1'
_cell_length_a   6.13339392
_cell_length_b   6.12768758
_cell_length_c   8.66486460
_cell_angle_alpha   90.00000000
_cell_angle_beta   89.97047472
_cell_angle_gamma   90.00000000
_symmetry_Int_Tables_number   1
_chemical_formula_structural   Ti13Mo3C16
_chemical_formula_sum   'Ti13 Mo3 C16'
_cell_volume   325.65608391
_cell_formula_units_Z   1
loop_
 _symmetry_equiv_pos_site_id
 _symmetry_equiv_pos_as_xyz
  1  'x, y, z'
loop_
 _atom_site_type_symbol
 _atom_site_label
 _atom_site_symmetry_multiplicity
 _atom_site_fract_x
 _atom_site_fract_y
 _atom_site_fract_z
 _atom_site_occupancy
  C  C0  1  0.75054941  0.75000000  0.50048018  1
  C  C1  1  0.75057714  0.25000000  0.49905722  1
  C  C2  1  0.24979156  0.75000000  0.49899287  1
  C  C3  1  0.24911377  0.25000000  0.50000252  1
  C  C4  1  0.50082054  0.50087600  0.25015280  1
  C  C5  1  0.50082054  0.99912400  0.25015280  1
  C  C6  1  0.75001944  0.75000000  0.99891691  1
  C  C7  1  0.75110851  0.25000000  0.00037548  1
  C  C8  1  0.00036549  0.49958315  0.24998451  1
  C  C9  1  0.00036549  0.00041685  0.24998451  1
  C  C10  1  0.24890055  0.75000000  0.00017616  1
  C  C11  1  0.24820963  0.25000000  0.99900021  1
  C  C12  1  0.50025488  0.50044577  0.75061755  1
  C  C13  1  0.50025488  0.99955423  0.75061755  1
  C  C14  1  0.99966547  0.50018116  0.75035813  1
  C  C15  1  0.99966547  0.99981884  0.75035813  1
  Ti  Ti16  1  0.75051903  0.25000000  0.74954078  1
  Ti  Ti17  1  0.75074523  0.75000000  0.74788270  1
  Ti  Ti18  1  0.24868880  0.25000000  0.74748883  1
  Ti  Ti19  1  0.24921002  0.75000000  0.74939312  1
  Ti  Ti20  1  0.50074001  0.99950792  0.50103267  1
  Ti  Ti21  1  0.50074001  0.50049208  0.50103267  1
  Ti  Ti22  1  0.75047461  0.25000000  0.25161752  1
  Ti  Ti23  1  0.99972008  0.99963563  0.50091925  1
  Ti  Ti24  1  0.99972008  0.50036437  0.50091925  1
  Ti  Ti25  1  0.25004404  0.75000000  0.25193167  1
  Ti  Ti26  1  0.99951144  0.99985640  0.99895571  1
  Ti  Ti27  1  0.99951144  0.50014360  0.99895571  1
  Ti  Ti28  1  0.75051349  0.75000000  0.25169731  1
  Mo  Mo29  1  0.25019143  0.25000000  0.25238308  1
  Mo  Mo30  1  0.49959377  0.99965076  0.99851111  1
  Mo  Mo31  1  0.49959377  0.50034924  0.99851111  1
