# generated using pymatgen
data_Ti11W5C16
_symmetry_space_group_name_H-M   'P 1'
_cell_length_a   6.14008962
_cell_length_b   6.14008961
_cell_length_c   8.68110326
_cell_angle_alpha   90.00000000
_cell_angle_beta   90.00000000
_cell_angle_gamma   90.09128805
_symmetry_Int_Tables_number   1
_chemical_formula_structural   Ti11W5C16
_chemical_formula_sum   'Ti11 W5 C16'
_cell_volume   327.28325861
_cell_formula_units_Z   1
loop_
 _symmetry_equiv_pos_site_id
 _symmetry_equiv_pos_as_xyz
  1  'x, y, z'
loop_
 _atom_site_type_symbol
 _atom_site_label
 _atom_site_symmetry_multiplicity
 _atom_site_fract_x
 _atom_site_fract_y
 _atom_site_fract_z
 _atom_site_occupancy
  C  C0  1  0.75068841  0.75068841  0.50038554  1
  C  C1  1  0.74970060  0.25029940  0.49860465  1
  C  C2  1  0.25029940  0.74970060  0.49860465  1
  C  C3  1  0.24931159  0.24931159  0.50038554  1
  C  C4  1  0.50000000  0.50000000  0.24937115  1
  C  C5  1  0.50000000  0.00000000  0.25064671  1
  C  C6  1  0.75024562  0.75024562  0.99910007  1
  C  C7  1  0.75045137  0.24954863  0.99983961  1
  C  C8  1  0.00000000  0.50000000  0.25064671  1
  C  C9  1  0.00000000  0.00000000  0.25089445  1
  C  C10  1  0.24954863  0.75045137  0.99983961  1
  C  C11  1  0.24975438  0.24975438  0.99910007  1
  C  C12  1  0.50000000  0.50000000  0.75041787  1
  C  C13  1  0.50000000  0.00000000  0.74977945  1
  C  C14  1  0.00000000  0.50000000  0.74977945  1
  C  C15  1  0.00000000  0.00000000  0.75095360  1
  Ti  Ti16  1  0.75055423  0.24944577  0.74797236  1
  Ti  Ti17  1  0.75187236  0.75187236  0.74507283  1
  Ti  Ti18  1  0.24812764  0.24812764  0.74507283  1
  Ti  Ti19  1  0.24944577  0.75055423  0.74797236  1
  Ti  Ti20  1  0.50000000  0.00000000  0.50385046  1
  Ti  Ti21  1  0.50000000  0.50000000  0.50300590  1
  Ti  Ti22  1  0.74856207  0.25143793  0.25534067  1
  Ti  Ti23  1  0.00000000  0.00000000  0.50263448  1
  Ti  Ti24  1  0.00000000  0.50000000  0.50385046  1
  Ti  Ti25  1  0.25143793  0.74856207  0.25534067  1
  Ti  Ti26  1  0.00000000  0.00000000  0.99610283  1
  W  W27  1  0.00000000  0.50000000  0.99254717  1
  W  W28  1  0.75359958  0.75359958  0.25955899  1
  W  W29  1  0.24640042  0.24640042  0.25955899  1
  W  W30  1  0.50000000  0.00000000  0.99254717  1
  W  W31  1  0.50000000  0.50000000  0.99122264  1
