# generated using pymatgen
data_MoN
_symmetry_space_group_name_H-M   'P 1'
_cell_length_a   11.49505916
_cell_length_b   5.75432224
_cell_length_c   5.66654473
_cell_angle_alpha   90.00000000
_cell_angle_beta   90.00000000
_cell_angle_gamma   120.03910260
_symmetry_Int_Tables_number   1
_chemical_formula_structural   MoN
_chemical_formula_sum   'Mo16 N16'
_cell_volume   324.47637787
_cell_formula_units_Z   16
loop_
 _symmetry_equiv_pos_site_id
 _symmetry_equiv_pos_as_xyz
  1  'x, y, z'
loop_
 _atom_site_type_symbol
 _atom_site_label
 _atom_site_symmetry_multiplicity
 _atom_site_fract_x
 _atom_site_fract_y
 _atom_site_fract_z
 _atom_site_occupancy
  Mo  Mo0  1  0.00004108  0.00004108  0.25592538  1
  Mo  Mo1  1  0.99995892  0.99995892  0.75592538  1
  Mo  Mo2  1  0.24422076  0.51139131  0.24823559  1
  Mo  Mo3  1  0.48836667  0.48836667  0.74795446  1
  Mo  Mo4  1  0.24422076  0.97705021  0.24823559  1
  Mo  Mo5  1  0.25577924  0.48860869  0.74823559  1
  Mo  Mo6  1  0.01163333  0.51163333  0.24795446  1
  Mo  Mo7  1  0.25577924  0.02294979  0.74823559  1
  Mo  Mo8  1  0.50004108  0.00004108  0.25592538  1
  Mo  Mo9  1  0.49995892  0.99995892  0.75592538  1
  Mo  Mo10  1  0.74422076  0.51139131  0.24823559  1
  Mo  Mo11  1  0.98836667  0.48836667  0.74795446  1
  Mo  Mo12  1  0.74422076  0.97705021  0.24823559  1
  Mo  Mo13  1  0.75577924  0.48860869  0.74823559  1
  Mo  Mo14  1  0.51163333  0.51163333  0.24795446  1
  Mo  Mo15  1  0.75577924  0.02294979  0.74823559  1
  N  N16  1  0.16668262  0.66668262  0.51952387  1
  N  N17  1  0.33331738  0.33331738  0.01952387  1
  N  N18  1  0.08323337  0.83335768  0.99338681  1
  N  N19  1  0.16664122  0.16664122  0.49335151  1
  N  N20  1  0.08323337  0.33310906  0.99338681  1
  N  N21  1  0.41676663  0.16664232  0.49338681  1
  N  N22  1  0.33335878  0.83335878  0.99335151  1
  N  N23  1  0.41676663  0.66689094  0.49338681  1
  N  N24  1  0.66668262  0.66668262  0.51952387  1
  N  N25  1  0.83331738  0.33331738  0.01952387  1
  N  N26  1  0.58323337  0.83335768  0.99338681  1
  N  N27  1  0.66664122  0.16664122  0.49335151  1
  N  N28  1  0.58323337  0.33310906  0.99338681  1
  N  N29  1  0.91676663  0.16664232  0.49338681  1
  N  N30  1  0.83335878  0.83335878  0.99335151  1
  N  N31  1  0.91676663  0.66689094  0.49338681  1
