# generated using pymatgen
data_TiMoN2
_symmetry_space_group_name_H-M   'P 1'
_cell_length_a   11.46724013
_cell_length_b   5.73438497
_cell_length_c   5.57268666
_cell_angle_alpha   89.97446112
_cell_angle_beta   89.94374323
_cell_angle_gamma   119.96681953
_symmetry_Int_Tables_number   1
_chemical_formula_structural   TiMoN2
_chemical_formula_sum   'Ti8 Mo8 N16'
_cell_volume   317.45754533
_cell_formula_units_Z   8
loop_
 _symmetry_equiv_pos_site_id
 _symmetry_equiv_pos_as_xyz
  1  'x, y, z'
loop_
 _atom_site_type_symbol
 _atom_site_label
 _atom_site_symmetry_multiplicity
 _atom_site_fract_x
 _atom_site_fract_y
 _atom_site_fract_z
 _atom_site_occupancy
  Mo  Mo0  1  0.00074568  0.00542792  0.24897626  1
  Mo  Mo1  1  0.49635174  0.49458283  0.75068148  1
  Mo  Mo2  1  0.99984132  0.49769143  0.24918822  1
  Mo  Mo3  1  0.25396283  0.00713458  0.75196014  1
  Mo  Mo4  1  0.50444361  0.00489245  0.25004838  1
  Mo  Mo5  1  0.74814162  0.49443062  0.24963413  1
  Mo  Mo6  1  0.99860006  0.50115316  0.74912909  1
  Mo  Mo7  1  0.75158256  0.50105411  0.74933783  1
  Ti  Ti8  1  0.00055968  0.99471295  0.74906077  1
  Ti  Ti9  1  0.24647777  0.49921144  0.25040486  1
  Ti  Ti10  1  0.24608774  0.99487238  0.25144088  1
  Ti  Ti11  1  0.25272876  0.50146965  0.75049614  1
  Ti  Ti12  1  0.49770965  0.00159974  0.74945337  1
  Ti  Ti13  1  0.75277232  0.00284430  0.25004351  1
  Ti  Ti14  1  0.50217407  0.50285829  0.25067218  1
  Ti  Ti15  1  0.74885774  0.99725110  0.75073440  1
  N  N16  1  0.16725402  0.66641637  0.49881181  1
  N  N17  1  0.33286593  0.33412019  0.01106052  1
  N  N18  1  0.08326360  0.83368635  0.99958957  1
  N  N19  1  0.16686735  0.16956365  0.50119837  1
  N  N20  1  0.08479849  0.33513609  0.99400421  1
  N  N21  1  0.41622612  0.16703280  0.49265506  1
  N  N22  1  0.33293901  0.83185077  0.00366990  1
  N  N23  1  0.41540832  0.66760766  0.49863014  1
  N  N24  1  0.66622993  0.66634800  0.49698482  1
  N  N25  1  0.83183057  0.32566556  0.99785356  1
  N  N26  1  0.58408226  0.83340848  0.99740385  1
  N  N27  1  0.66728897  0.16382544  0.50560383  1
  N  N28  1  0.58317341  0.33522008  0.99891662  1
  N  N29  1  0.91549342  0.16478559  0.50548550  1
  N  N30  1  0.83362869  0.83374315  0.99662292  1
  N  N31  1  0.91761275  0.67040285  0.50024777  1
