# generated using pymatgen
data_MoWC2
_symmetry_space_group_name_H-M   'P 1'
_cell_length_a   11.68276750
_cell_length_b   5.84294862
_cell_length_c   5.67692455
_cell_angle_alpha   90.00000000
_cell_angle_beta   90.00000000
_cell_angle_gamma   119.99566408
_symmetry_Int_Tables_number   1
_chemical_formula_structural   MoWC2
_chemical_formula_sum   'Mo8 W8 C16'
_cell_volume   335.61435516
_cell_formula_units_Z   8
loop_
 _symmetry_equiv_pos_site_id
 _symmetry_equiv_pos_as_xyz
  1  'x, y, z'
loop_
 _atom_site_type_symbol
 _atom_site_label
 _atom_site_symmetry_multiplicity
 _atom_site_fract_x
 _atom_site_fract_y
 _atom_site_fract_z
 _atom_site_occupancy
  Mo  Mo0  1  0.99977696  0.00061713  0.00000000  1
  Mo  Mo1  1  0.00050449  0.00009941  0.50000000  1
  Mo  Mo2  1  0.99992173  0.49910309  0.00000000  1
  Mo  Mo3  1  0.25009145  0.99965857  0.00000000  1
  Mo  Mo4  1  0.25022151  0.49941429  0.50000000  1
  Mo  Mo5  1  0.49988680  0.99914066  0.50000000  1
  Mo  Mo6  1  0.50032219  0.49954351  0.00000000  1
  Mo  Mo7  1  0.75057823  0.99983327  0.00000000  1
  C  C8  1  0.16702293  0.16705242  0.24947361  1
  C  C9  1  0.16702293  0.16705242  0.75052639  1
  C  C10  1  0.16669941  0.66666314  0.25016575  1
  C  C11  1  0.16669941  0.66666314  0.74983425  1
  C  C12  1  0.41653789  0.16649689  0.25034202  1
  C  C13  1  0.41653789  0.16649689  0.74965798  1
  C  C14  1  0.41653854  0.66654301  0.24926716  1
  C  C15  1  0.41653854  0.66654301  0.75073284  1
  C  C16  1  0.66675968  0.16720871  0.24935714  1
  C  C17  1  0.66675968  0.16720871  0.75064286  1
  C  C18  1  0.66678852  0.66633474  0.25047686  1
  C  C19  1  0.66678852  0.66633474  0.74952314  1
  C  C20  1  0.91665972  0.16713175  0.25023057  1
  C  C21  1  0.91665972  0.16713175  0.74976943  1
  C  C22  1  0.91634942  0.66585286  0.24956914  1
  C  C23  1  0.91634942  0.66585286  0.75043086  1
  W  W24  1  0.00005467  0.50047297  0.50000000  1
  W  W25  1  0.24959129  0.00045223  0.50000000  1
  W  W26  1  0.24949036  0.49990101  0.00000000  1
  W  W27  1  0.49968163  0.00048433  0.00000000  1
  W  W28  1  0.49925645  0.50003150  0.50000000  1
  W  W29  1  0.75016545  0.00093152  0.50000000  1
  W  W30  1  0.75010870  0.50089981  0.00000000  1
  W  W31  1  0.75030259  0.49951635  0.50000000  1
