# generated using pymatgen
data_Mo2CN
_symmetry_space_group_name_H-M   'P 1'
_cell_length_a   11.60021827
_cell_length_b   5.80238304
_cell_length_c   5.64042037
_cell_angle_alpha   90.00000000
_cell_angle_beta   90.00000000
_cell_angle_gamma   120.03201480
_symmetry_Int_Tables_number   1
_chemical_formula_structural   Mo2CN
_chemical_formula_sum   'Mo16 C8 N8'
_cell_volume   328.68089827
_cell_formula_units_Z   8
loop_
 _symmetry_equiv_pos_site_id
 _symmetry_equiv_pos_as_xyz
  1  'x, y, z'
loop_
 _atom_site_type_symbol
 _atom_site_label
 _atom_site_symmetry_multiplicity
 _atom_site_fract_x
 _atom_site_fract_y
 _atom_site_fract_z
 _atom_site_occupancy
  Mo  Mo0  1  0.00006699  0.00059592  0.99995006  1
  Mo  Mo1  1  0.00006699  0.00059592  0.50004994  1
  Mo  Mo2  1  0.99988790  0.49938762  0.00000589  1
  Mo  Mo3  1  0.99988790  0.49938762  0.49999411  1
  Mo  Mo4  1  0.25007026  0.00001158  0.99999178  1
  Mo  Mo5  1  0.25007026  0.00001158  0.50000822  1
  Mo  Mo6  1  0.24990681  0.49990455  0.00015596  1
  Mo  Mo7  1  0.24990681  0.49990455  0.49984404  1
  Mo  Mo8  1  0.50011074  0.99985787  0.99941873  1
  Mo  Mo9  1  0.50011074  0.99985787  0.50058127  1
  Mo  Mo10  1  0.49999405  0.49983602  0.99940321  1
  Mo  Mo11  1  0.49999405  0.49983602  0.50059679  1
  Mo  Mo12  1  0.74998309  0.00038312  0.99940919  1
  Mo  Mo13  1  0.74998309  0.00038312  0.50059081  1
  Mo  Mo14  1  0.74994868  0.49942385  0.99838513  1
  Mo  Mo15  1  0.74994868  0.49942385  0.50161487  1
  C  C16  1  0.16716308  0.16714227  0.25000000  1
  C  C17  1  0.16713925  0.16914316  0.75000000  1
  C  C18  1  0.41769155  0.16801566  0.25000000  1
  C  C19  1  0.41671937  0.16705370  0.75000000  1
  C  C20  1  0.66741102  0.16902789  0.75000000  1
  C  C21  1  0.66759900  0.66603134  0.75000000  1
  C  C22  1  0.91604334  0.16714413  0.25000000  1
  C  C23  1  0.91542671  0.66455568  0.75000000  1
  N  N24  1  0.16612359  0.66718685  0.25000000  1
  N  N25  1  0.16618141  0.66377344  0.75000000  1
  N  N26  1  0.41673453  0.66632160  0.25000000  1
  N  N27  1  0.41570551  0.66534887  0.75000000  1
  N  N28  1  0.66572045  0.16478536  0.25000000  1
  N  N29  1  0.66586377  0.66688643  0.25000000  1
  N  N30  1  0.91730447  0.16810848  0.75000000  1
  N  N31  1  0.91790265  0.66734081  0.25000000  1
