# generated using pymatgen
data_TiWC2
_symmetry_space_group_name_H-M   'P 1'
_cell_length_a   8.72080458
_cell_length_b   8.71683290
_cell_length_c   4.32694907
_cell_angle_alpha   90.00000000
_cell_angle_beta   90.00000000
_cell_angle_gamma   90.13348219
_symmetry_Int_Tables_number   1
_chemical_formula_structural   TiWC2
_chemical_formula_sum   'Ti8 W8 C16'
_cell_volume   328.92424011
_cell_formula_units_Z   8
loop_
 _symmetry_equiv_pos_site_id
 _symmetry_equiv_pos_as_xyz
  1  'x, y, z'
loop_
 _atom_site_type_symbol
 _atom_site_label
 _atom_site_symmetry_multiplicity
 _atom_site_fract_x
 _atom_site_fract_y
 _atom_site_fract_z
 _atom_site_occupancy
  Ti  Ti0  1  0.99653442  0.99915367  0.00000000  1
  Ti  Ti1  1  0.25161074  0.24947760  0.00000000  1
  Ti  Ti2  1  0.25194949  0.50064931  0.50000000  1
  Ti  Ti3  1  0.24848259  0.75087234  0.00000000  1
  Ti  Ti4  1  0.49722973  0.25171127  0.50000000  1
  Ti  Ti5  1  0.74784202  0.99596425  0.50000000  1
  Ti  Ti6  1  0.50057345  0.74911664  0.50000000  1
  Ti  Ti7  1  0.75107697  0.75319306  0.00000000  1
  W  W8  1  0.00574537  0.24195413  0.50000000  1
  W  W9  1  0.25024407  0.00089130  0.50000000  1
  W  W10  1  0.01045281  0.50124624  0.00000000  1
  W  W11  1  0.99917061  0.75476231  0.50000000  1
  W  W12  1  0.50308022  0.99790026  0.00000000  1
  W  W13  1  0.74726123  0.24351835  0.00000000  1
  W  W14  1  0.48961298  0.50506144  0.00000000  1
  W  W15  1  0.74913844  0.50390182  0.50000000  1
  C  C16  1  0.25225462  0.25172527  0.50000000  1
  C  C17  1  0.24782558  0.99991294  0.00000000  1
  C  C18  1  0.00194415  0.24844440  0.00000000  1
  C  C19  1  0.99793463  0.99914600  0.50000000  1
  C  C20  1  0.25111010  0.74974096  0.50000000  1
  C  C21  1  0.24999402  0.50127318  0.00000000  1
  C  C22  1  0.00000286  0.75114313  0.00000000  1
  C  C23  1  0.00124957  0.49850218  0.50000000  1
  C  C24  1  0.74798254  0.24839372  0.50000000  1
  C  C25  1  0.75198806  0.99779681  0.00000000  1
  C  C26  1  0.49923475  0.25125089  0.00000000  1
  C  C27  1  0.50105033  0.00069618  0.50000000  1
  C  C28  1  0.74762248  0.75041131  0.50000000  1
  C  C29  1  0.75124098  0.50105171  0.00000000  1
  C  C30  1  0.49928996  0.75077946  0.00000000  1
  C  C31  1  0.49927022  0.50035788  0.50000000  1
