# generated using pymatgen
data_Ti2CN
_symmetry_space_group_name_H-M   'P 1'
_cell_length_a   8.57414116
_cell_length_b   8.58277617
_cell_length_c   4.29118931
_cell_angle_alpha   90.00000000
_cell_angle_beta   90.00000000
_cell_angle_gamma   89.98724239
_symmetry_Int_Tables_number   1
_chemical_formula_structural   Ti2CN
_chemical_formula_sum   'Ti16 C8 N8'
_cell_volume   315.78833221
_cell_formula_units_Z   8
loop_
 _symmetry_equiv_pos_site_id
 _symmetry_equiv_pos_as_xyz
  1  'x, y, z'
loop_
 _atom_site_type_symbol
 _atom_site_label
 _atom_site_symmetry_multiplicity
 _atom_site_fract_x
 _atom_site_fract_y
 _atom_site_fract_z
 _atom_site_occupancy
  Ti  Ti0  1  0.99857959  0.99928960  0.00000000  1
  Ti  Ti1  1  0.99963327  0.24885366  0.50000000  1
  Ti  Ti2  1  0.24811282  0.00269036  0.50000000  1
  Ti  Ti3  1  0.25134478  0.24925049  0.00000000  1
  Ti  Ti4  1  0.99913422  0.50334725  0.00000000  1
  Ti  Ti5  1  0.00001294  0.75165144  0.50000000  1
  Ti  Ti6  1  0.25210036  0.49690380  0.50000000  1
  Ti  Ti7  1  0.25052431  0.75096317  0.00000000  1
  Ti  Ti8  1  0.50175775  0.99993334  0.00000000  1
  Ti  Ti9  1  0.50034239  0.24941059  0.50000000  1
  Ti  Ti10  1  0.75052862  0.00105672  0.50000000  1
  Ti  Ti11  1  0.74972236  0.24871841  0.00000000  1
  Ti  Ti12  1  0.50066037  0.49979537  0.00000000  1
  Ti  Ti13  1  0.49999532  0.74908758  0.50000000  1
  Ti  Ti14  1  0.74812516  0.49715060  0.50000000  1
  Ti  Ti15  1  0.74960673  0.75200889  0.00000000  1
  C  C16  1  0.24897750  0.25020059  0.50000000  1
  C  C17  1  0.00111506  0.00001056  0.50000000  1
  C  C18  1  0.00060504  0.74853425  0.00000000  1
  C  C19  1  0.75107354  0.25112686  0.50000000  1
  C  C20  1  0.74953352  0.99916117  0.00000000  1
  C  C21  1  0.49934380  0.24951717  0.00000000  1
  C  C22  1  0.49930558  0.75027073  0.00000000  1
  C  C23  1  0.49983517  0.50082681  0.50000000  1
  N  N24  1  0.25066574  0.99908533  0.00000000  1
  N  N25  1  0.00062801  0.25224977  0.00000000  1
  N  N26  1  0.24994794  0.74989620  0.50000000  1
  N  N27  1  0.24790045  0.50090153  0.00000000  1
  N  N28  1  0.00016148  0.50020776  0.50000000  1
  N  N29  1  0.49849681  0.99854284  0.50000000  1
  N  N30  1  0.75007913  0.74852859  0.50000000  1
  N  N31  1  0.75215021  0.50082855  0.00000000  1
