# generated using pymatgen
data_TiMoCN
_symmetry_space_group_name_H-M   'P 1'
_cell_length_a   8.62089768
_cell_length_b   8.66793587
_cell_length_c   4.32673382
_cell_angle_alpha   90.00000000
_cell_angle_beta   90.00000000
_cell_angle_gamma   90.25010745
_symmetry_Int_Tables_number   1
_chemical_formula_structural   TiMoCN
_chemical_formula_sum   'Ti8 Mo8 C8 N8'
_cell_volume   323.31378422
_cell_formula_units_Z   8
loop_
 _symmetry_equiv_pos_site_id
 _symmetry_equiv_pos_as_xyz
  1  'x, y, z'
loop_
 _atom_site_type_symbol
 _atom_site_label
 _atom_site_symmetry_multiplicity
 _atom_site_fract_x
 _atom_site_fract_y
 _atom_site_fract_z
 _atom_site_occupancy
  Mo  Mo0  1  0.00463774  0.01304329  0.00000000  1
  Mo  Mo1  1  0.99475482  0.24111748  0.50000000  1
  Mo  Mo2  1  0.23794723  0.24268184  0.00000000  1
  Mo  Mo3  1  0.99444867  0.76201918  0.50000000  1
  Mo  Mo4  1  0.50035391  0.98371293  0.00000000  1
  Mo  Mo5  1  0.50609206  0.26125785  0.50000000  1
  Mo  Mo6  1  0.50620625  0.51451240  0.00000000  1
  Mo  Mo7  1  0.74084589  0.75028129  0.00000000  1
  Ti  Ti8  1  0.25399951  0.00259526  0.50000000  1
  Ti  Ti9  1  0.00249002  0.49447293  0.00000000  1
  Ti  Ti10  1  0.25060961  0.49479688  0.50000000  1
  Ti  Ti11  1  0.24647607  0.75280357  0.00000000  1
  Ti  Ti12  1  0.74868711  0.99724885  0.50000000  1
  Ti  Ti13  1  0.74811936  0.24745430  0.00000000  1
  Ti  Ti14  1  0.49986757  0.74717584  0.50000000  1
  Ti  Ti15  1  0.75128366  0.50021770  0.50000000  1
  C  C16  1  0.25283926  0.24997120  0.50000000  1
  C  C17  1  0.25338606  0.99817131  0.00000000  1
  C  C18  1  0.99435193  0.25199681  0.00000000  1
  C  C19  1  0.00037018  0.99852209  0.50000000  1
  C  C20  1  0.74970488  0.24924994  0.50000000  1
  C  C21  1  0.75188372  0.99915660  0.00000000  1
  C  C22  1  0.74867470  0.74940084  0.50000000  1
  C  C23  1  0.49404873  0.75141488  0.00000000  1
  N  N24  1  0.25329172  0.74904661  0.50000000  1
  N  N25  1  0.24939049  0.50455726  0.00000000  1
  N  N26  1  0.00301399  0.73832958  0.00000000  1
  N  N27  1  0.00250303  0.49959173  0.50000000  1
  N  N28  1  0.50172082  0.25470028  0.00000000  1
  N  N29  1  0.50093814  0.99975995  0.50000000  1
  N  N30  1  0.75589937  0.49418503  0.00000000  1
  N  N31  1  0.50116349  0.50655434  0.50000000  1
