# generated using pymatgen
data_TiAlCN
_symmetry_space_group_name_H-M   'P 1'
_cell_length_a   8.50415233
_cell_length_b   8.48710149
_cell_length_c   4.22996926
_cell_angle_alpha   90.00000000
_cell_angle_beta   90.00000000
_cell_angle_gamma   89.89483823
_symmetry_Int_Tables_number   1
_chemical_formula_structural   TiAlCN
_chemical_formula_sum   'Ti8 Al8 C8 N8'
_cell_volume   305.30007146
_cell_formula_units_Z   8
loop_
 _symmetry_equiv_pos_site_id
 _symmetry_equiv_pos_as_xyz
  1  'x, y, z'
loop_
 _atom_site_type_symbol
 _atom_site_label
 _atom_site_symmetry_multiplicity
 _atom_site_fract_x
 _atom_site_fract_y
 _atom_site_fract_z
 _atom_site_occupancy
  Al  Al0  1  0.00352263  0.00047954  0.00000000  1
  Al  Al1  1  0.25260923  0.99944973  0.50000000  1
  Al  Al2  1  0.25409411  0.50024520  0.50000000  1
  Al  Al3  1  0.25373102  0.75272185  0.00000000  1
  Al  Al4  1  0.49617340  0.99837181  0.00000000  1
  Al  Al5  1  0.49997465  0.24449502  0.50000000  1
  Al  Al6  1  0.74441093  0.24704235  0.00000000  1
  Al  Al7  1  0.49343157  0.75645179  0.50000000  1
  Ti  Ti8  1  0.99739913  0.24959085  0.50000000  1
  Ti  Ti9  1  0.25331156  0.23919711  0.00000000  1
  Ti  Ti10  1  0.00290971  0.50018105  0.00000000  1
  Ti  Ti11  1  0.00743601  0.75127243  0.50000000  1
  Ti  Ti12  1  0.75477413  0.00298113  0.50000000  1
  Ti  Ti13  1  0.49335729  0.50123675  0.00000000  1
  Ti  Ti14  1  0.74436611  0.49803624  0.50000000  1
  Ti  Ti15  1  0.75068644  0.75821177  0.00000000  1
  N  N16  1  0.25599422  0.24975959  0.50000000  1
  N  N17  1  0.00365736  0.24962110  0.00000000  1
  N  N18  1  0.25462706  0.75224101  0.50000000  1
  N  N19  1  0.50226755  0.24662486  0.00000000  1
  N  N20  1  0.49410163  0.99878818  0.50000000  1
  N  N21  1  0.74428560  0.75194365  0.50000000  1
  N  N22  1  0.74778168  0.49499255  0.00000000  1
  N  N23  1  0.49748784  0.75450218  0.00000000  1
  C  C24  1  0.25220332  0.99932259  0.00000000  1
  C  C25  1  0.99981868  0.00264993  0.50000000  1
  C  C26  1  0.25227242  0.49984506  0.00000000  1
  C  C27  1  0.99751501  0.74818609  0.00000000  1
  C  C28  1  0.00085861  0.50080231  0.50000000  1
  C  C29  1  0.74970787  0.25016677  0.50000000  1
  C  C30  1  0.74531032  0.99784713  0.00000000  1
  C  C31  1  0.49992291  0.50274240  0.50000000  1
