# generated using pymatgen
data_TiAlN2
_symmetry_space_group_name_H-M   'P 1'
_cell_length_a   8.38887905
_cell_length_b   8.35060866
_cell_length_c   4.15630287
_cell_angle_alpha   90.00000000
_cell_angle_beta   90.00000000
_cell_angle_gamma   89.84189041
_symmetry_Int_Tables_number   1
_chemical_formula_structural   TiAlN2
_chemical_formula_sum   'Ti8 Al8 N16'
_cell_volume   291.15724252
_cell_formula_units_Z   8
loop_
 _symmetry_equiv_pos_site_id
 _symmetry_equiv_pos_as_xyz
  1  'x, y, z'
loop_
 _atom_site_type_symbol
 _atom_site_label
 _atom_site_symmetry_multiplicity
 _atom_site_fract_x
 _atom_site_fract_y
 _atom_site_fract_z
 _atom_site_occupancy
  Al  Al0  1  0.00222107  0.99955921  0.00000000  1
  Al  Al1  1  0.00183326  0.24913702  0.50000000  1
  Al  Al2  1  0.24388481  0.99829118  0.50000000  1
  Al  Al3  1  0.99700038  0.49985571  0.00000000  1
  Al  Al4  1  0.99647641  0.74987001  0.50000000  1
  Al  Al5  1  0.75804226  0.24991027  0.00000000  1
  Al  Al6  1  0.50315784  0.75332972  0.50000000  1
  Al  Al7  1  0.75238889  0.75027408  0.00000000  1
  Ti  Ti8  1  0.25902876  0.25471851  0.00000000  1
  Ti  Ti9  1  0.25665941  0.49743048  0.50000000  1
  Ti  Ti10  1  0.25631159  0.74320546  0.00000000  1
  Ti  Ti11  1  0.49924490  0.00669902  0.00000000  1
  Ti  Ti12  1  0.49775687  0.25192765  0.50000000  1
  Ti  Ti13  1  0.74126052  0.00527910  0.50000000  1
  Ti  Ti14  1  0.49613180  0.49436587  0.00000000  1
  Ti  Ti15  1  0.74049358  0.49518116  0.50000000  1
  N  N16  1  0.24011341  0.23969751  0.50000000  1
  N  N17  1  0.24143309  0.99908039  0.00000000  1
  N  N18  1  0.99318695  0.25026134  0.00000000  1
  N  N19  1  0.00439224  0.99674802  0.50000000  1
  N  N20  1  0.24949960  0.75717912  0.50000000  1
  N  N21  1  0.23762822  0.49944541  0.00000000  1
  N  N22  1  0.99241364  0.74923811  0.00000000  1
  N  N23  1  0.99963996  0.50268543  0.50000000  1
  N  N24  1  0.75932377  0.24944222  0.50000000  1
  N  N25  1  0.75880810  0.00121686  0.00000000  1
  N  N26  1  0.51616607  0.24969254  0.00000000  1
  N  N27  1  0.48824594  0.99072545  0.50000000  1
  N  N28  1  0.74933933  0.75163611  0.50000000  1
  N  N29  1  0.75812056  0.49917904  0.00000000  1
  N  N30  1  0.51017489  0.75079014  0.00000000  1
  N  N31  1  0.49962189  0.51394787  0.50000000  1
