# generated using pymatgen
data_WC
_symmetry_space_group_name_H-M   'P 1'
_cell_length_a   11.70112928
_cell_length_b   5.85056464
_cell_length_c   5.69751632
_cell_angle_alpha   90.00000000
_cell_angle_beta   90.00000000
_cell_angle_gamma   119.99999997
_symmetry_Int_Tables_number   1
_chemical_formula_structural   WC
_chemical_formula_sum   'W16 C16'
_cell_volume   337.78609645
_cell_formula_units_Z   16
loop_
 _symmetry_equiv_pos_site_id
 _symmetry_equiv_pos_as_xyz
  1  'x, y, z'
loop_
 _atom_site_type_symbol
 _atom_site_label
 _atom_site_symmetry_multiplicity
 _atom_site_fract_x
 _atom_site_fract_y
 _atom_site_fract_z
 _atom_site_occupancy
  W  W0  1  0.00000000  0.00000000  0.00000000  1
  W  W1  1  0.00000000  0.00000000  0.50000000  1
  W  W2  1  0.00000000  0.50000000  0.00000000  1
  W  W3  1  0.00000000  0.50000000  0.50000000  1
  W  W4  1  0.25000000  0.00000000  0.00000000  1
  W  W5  1  0.25000000  0.00000000  0.50000000  1
  W  W6  1  0.25000000  0.50000000  0.00000000  1
  W  W7  1  0.25000000  0.50000000  0.50000000  1
  W  W8  1  0.50000000  0.00000000  0.00000000  1
  W  W9  1  0.50000000  0.00000000  0.50000000  1
  W  W10  1  0.50000000  0.50000000  0.00000000  1
  W  W11  1  0.50000000  0.50000000  0.50000000  1
  W  W12  1  0.75000000  0.00000000  0.00000000  1
  W  W13  1  0.75000000  0.00000000  0.50000000  1
  W  W14  1  0.75000000  0.50000000  0.00000000  1
  W  W15  1  0.75000000  0.50000000  0.50000000  1
  C  C16  1  0.16666667  0.16666667  0.25000000  1
  C  C17  1  0.16666667  0.16666667  0.75000000  1
  C  C18  1  0.16666667  0.66666667  0.25000000  1
  C  C19  1  0.16666667  0.66666667  0.75000000  1
  C  C20  1  0.41666667  0.16666667  0.25000000  1
  C  C21  1  0.41666667  0.16666667  0.75000000  1
  C  C22  1  0.41666667  0.66666667  0.25000000  1
  C  C23  1  0.41666667  0.66666667  0.75000000  1
  C  C24  1  0.66666667  0.16666667  0.25000000  1
  C  C25  1  0.66666667  0.16666667  0.75000000  1
  C  C26  1  0.66666667  0.66666667  0.25000000  1
  C  C27  1  0.66666667  0.66666667  0.75000000  1
  C  C28  1  0.91666667  0.16666667  0.25000000  1
  C  C29  1  0.91666667  0.16666667  0.75000000  1
  C  C30  1  0.91666667  0.66666667  0.25000000  1
  C  C31  1  0.91666667  0.66666667  0.75000000  1
