# generated using pymatgen
data_MoC
_symmetry_space_group_name_H-M   'P 1'
_cell_length_a   11.67124989
_cell_length_b   5.83562494
_cell_length_c   5.65225566
_cell_angle_alpha   90.00000000
_cell_angle_beta   90.00000000
_cell_angle_gamma   119.99999998
_symmetry_Int_Tables_number   1
_chemical_formula_structural   MoC
_chemical_formula_sum   'Mo16 C16'
_cell_volume   333.39353116
_cell_formula_units_Z   16
loop_
 _symmetry_equiv_pos_site_id
 _symmetry_equiv_pos_as_xyz
  1  'x, y, z'
loop_
 _atom_site_type_symbol
 _atom_site_label
 _atom_site_symmetry_multiplicity
 _atom_site_fract_x
 _atom_site_fract_y
 _atom_site_fract_z
 _atom_site_occupancy
  Mo  Mo0  1  0.00000000  0.00000000  0.00000000  1
  Mo  Mo1  1  0.00000000  0.00000000  0.50000000  1
  Mo  Mo2  1  0.00000000  0.50000000  0.00000000  1
  Mo  Mo3  1  0.00000000  0.50000000  0.50000000  1
  Mo  Mo4  1  0.25000000  0.00000000  0.00000000  1
  Mo  Mo5  1  0.25000000  0.00000000  0.50000000  1
  Mo  Mo6  1  0.25000000  0.50000000  0.00000000  1
  Mo  Mo7  1  0.25000000  0.50000000  0.50000000  1
  Mo  Mo8  1  0.50000000  0.00000000  0.00000000  1
  Mo  Mo9  1  0.50000000  0.00000000  0.50000000  1
  Mo  Mo10  1  0.50000000  0.50000000  0.00000000  1
  Mo  Mo11  1  0.50000000  0.50000000  0.50000000  1
  Mo  Mo12  1  0.75000000  0.00000000  0.00000000  1
  Mo  Mo13  1  0.75000000  0.00000000  0.50000000  1
  Mo  Mo14  1  0.75000000  0.50000000  0.00000000  1
  Mo  Mo15  1  0.75000000  0.50000000  0.50000000  1
  C  C16  1  0.16666667  0.16666667  0.25000000  1
  C  C17  1  0.16666667  0.16666667  0.75000000  1
  C  C18  1  0.16666667  0.66666667  0.25000000  1
  C  C19  1  0.16666667  0.66666667  0.75000000  1
  C  C20  1  0.41666667  0.16666667  0.25000000  1
  C  C21  1  0.41666667  0.16666667  0.75000000  1
  C  C22  1  0.41666667  0.66666667  0.25000000  1
  C  C23  1  0.41666667  0.66666667  0.75000000  1
  C  C24  1  0.66666667  0.16666667  0.25000000  1
  C  C25  1  0.66666667  0.16666667  0.75000000  1
  C  C26  1  0.66666667  0.66666667  0.25000000  1
  C  C27  1  0.66666667  0.66666667  0.75000000  1
  C  C28  1  0.91666667  0.16666667  0.25000000  1
  C  C29  1  0.91666667  0.16666667  0.75000000  1
  C  C30  1  0.91666667  0.66666667  0.25000000  1
  C  C31  1  0.91666667  0.66666667  0.75000000  1
