# generated using pymatgen
data_WN
_symmetry_space_group_name_H-M   'P 1'
_cell_length_a   11.46206906
_cell_length_b   5.74678023
_cell_length_c   5.82496112
_cell_angle_alpha   90.00000000
_cell_angle_beta   90.00000000
_cell_angle_gamma   120.09092649
_symmetry_Int_Tables_number   1
_chemical_formula_structural   WN
_chemical_formula_sum   'W16 N16'
_cell_volume   331.98053981
_cell_formula_units_Z   16
loop_
 _symmetry_equiv_pos_site_id
 _symmetry_equiv_pos_as_xyz
  1  'x, y, z'
loop_
 _atom_site_type_symbol
 _atom_site_label
 _atom_site_symmetry_multiplicity
 _atom_site_fract_x
 _atom_site_fract_y
 _atom_site_fract_z
 _atom_site_occupancy
  W  W0  1  0.99993131  0.99993131  0.25000000  1
  W  W1  1  0.99993131  0.99993131  0.75000000  1
  W  W2  1  0.99993131  0.49993131  0.25000000  1
  W  W3  1  0.99993131  0.49993131  0.75000000  1
  W  W4  1  0.24993131  0.99993131  0.25000000  1
  W  W5  1  0.24993131  0.99993131  0.75000000  1
  W  W6  1  0.24993131  0.49993131  0.25000000  1
  W  W7  1  0.24993131  0.49993131  0.75000000  1
  W  W8  1  0.49993131  0.99993131  0.25000000  1
  W  W9  1  0.49993131  0.99993131  0.75000000  1
  W  W10  1  0.49993131  0.49993131  0.25000000  1
  W  W11  1  0.49993131  0.49993131  0.75000000  1
  W  W12  1  0.74993131  0.99993131  0.25000000  1
  W  W13  1  0.74993131  0.99993131  0.75000000  1
  W  W14  1  0.74993131  0.49993131  0.25000000  1
  W  W15  1  0.74993131  0.49993131  0.75000000  1
  N  N16  1  0.08340202  0.33340202  0.00000000  1
  N  N17  1  0.08340202  0.33340202  0.50000000  1
  N  N18  1  0.08340202  0.83340202  0.00000000  1
  N  N19  1  0.08340202  0.83340202  0.50000000  1
  N  N20  1  0.33340202  0.33340202  0.00000000  1
  N  N21  1  0.33340202  0.33340202  0.50000000  1
  N  N22  1  0.33340202  0.83340202  0.00000000  1
  N  N23  1  0.33340202  0.83340202  0.50000000  1
  N  N24  1  0.58340202  0.33340202  0.00000000  1
  N  N25  1  0.58340202  0.33340202  0.50000000  1
  N  N26  1  0.58340202  0.83340202  0.00000000  1
  N  N27  1  0.58340202  0.83340202  0.50000000  1
  N  N28  1  0.83340202  0.33340202  0.00000000  1
  N  N29  1  0.83340202  0.33340202  0.50000000  1
  N  N30  1  0.83340202  0.83340202  0.00000000  1
  N  N31  1  0.83340202  0.83340202  0.50000000  1
