# generated using pymatgen
data_Ti3Al2W3C8
_symmetry_space_group_name_H-M   'P 1'
_cell_length_a   8.66264420
_cell_length_b   8.68418107
_cell_length_c   4.29742318
_cell_angle_alpha   90.00000000
_cell_angle_beta   90.00000000
_cell_angle_gamma   90.12269806
_symmetry_Int_Tables_number   1
_chemical_formula_structural   Ti3Al2W3C8
_chemical_formula_sum   'Ti6 Al4 W6 C16'
_cell_volume   323.28568421
_cell_formula_units_Z   2
loop_
 _symmetry_equiv_pos_site_id
 _symmetry_equiv_pos_as_xyz
  1  'x, y, z'
loop_
 _atom_site_type_symbol
 _atom_site_label
 _atom_site_symmetry_multiplicity
 _atom_site_fract_x
 _atom_site_fract_y
 _atom_site_fract_z
 _atom_site_occupancy
  W  W0  1  0.00829021  0.99897972  0.00000000  1
  W  W1  1  0.24990567  0.25152306  0.00000000  1
  W  W2  1  0.49361226  0.00350949  0.00000000  1
  W  W3  1  0.49757889  0.25384691  0.50000000  1
  W  W4  1  0.75078651  0.50352335  0.50000000  1
  W  W5  1  0.74900758  0.75207337  0.00000000  1
  Ti  Ti6  1  0.99842719  0.25042738  0.50000000  1
  Ti  Ti7  1  0.25028560  0.99358050  0.50000000  1
  Ti  Ti8  1  0.99924763  0.49898081  0.00000000  1
  Ti  Ti9  1  0.00461519  0.74925671  0.50000000  1
  Ti  Ti10  1  0.24751671  0.50028853  0.50000000  1
  Ti  Ti11  1  0.50061327  0.50232899  0.00000000  1
  C  C12  1  0.24674944  0.24846934  0.50000000  1
  C  C13  1  0.25120004  0.99550675  0.00000000  1
  C  C14  1  0.99819973  0.24975281  0.00000000  1
  C  C15  1  0.99934051  0.99949443  0.50000000  1
  C  C16  1  0.25034133  0.75035485  0.50000000  1
  C  C17  1  0.25060447  0.49719471  0.00000000  1
  C  C18  1  0.99763980  0.74939200  0.00000000  1
  C  C19  1  0.99893050  0.50017466  0.50000000  1
  C  C20  1  0.74740454  0.24891890  0.50000000  1
  C  C21  1  0.75018847  0.00181966  0.00000000  1
  C  C22  1  0.50698832  0.25435436  0.00000000  1
  C  C23  1  0.50255759  0.99802221  0.50000000  1
  C  C24  1  0.74812110  0.75792318  0.50000000  1
  C  C25  1  0.74948733  0.49619381  0.00000000  1
  C  C26  1  0.50177630  0.75209778  0.00000000  1
  C  C27  1  0.49996708  0.50307502  0.50000000  1
  Al  Al28  1  0.25180276  0.74000349  0.00000000  1
  Al  Al29  1  0.75091539  0.00483555  0.50000000  1
  Al  Al30  1  0.75679744  0.24497837  0.00000000  1
  Al  Al31  1  0.49110114  0.74911930  0.50000000  1
