# generated using pymatgen
data_Ti3Mo2W3C8
_symmetry_space_group_name_H-M   'P 1'
_cell_length_a   8.72653501
_cell_length_b   8.74353043
_cell_length_c   4.32563798
_cell_angle_alpha   90.00000000
_cell_angle_beta   90.00000000
_cell_angle_gamma   89.96594007
_symmetry_Int_Tables_number   1
_chemical_formula_structural   Ti3Mo2W3C8
_chemical_formula_sum   'Ti6 Mo4 W6 C16'
_cell_volume   330.04925327
_cell_formula_units_Z   2
loop_
 _symmetry_equiv_pos_site_id
 _symmetry_equiv_pos_as_xyz
  1  'x, y, z'
loop_
 _atom_site_type_symbol
 _atom_site_label
 _atom_site_symmetry_multiplicity
 _atom_site_fract_x
 _atom_site_fract_y
 _atom_site_fract_z
 _atom_site_occupancy
  Ti  Ti0  1  0.00077321  0.00049664  0.00000000  1
  Ti  Ti1  1  0.25045628  0.24839125  0.00000000  1
  Ti  Ti2  1  0.24989992  0.75103176  0.00000000  1
  Ti  Ti3  1  0.74919223  0.25182826  0.00000000  1
  Ti  Ti4  1  0.50225102  0.49905981  0.00000000  1
  Ti  Ti5  1  0.74999121  0.50133608  0.50000000  1
  W  W6  1  0.99353529  0.24359898  0.50000000  1
  W  W7  1  0.99694037  0.50216170  0.00000000  1
  W  W8  1  0.25154966  0.49840334  0.50000000  1
  W  W9  1  0.49848121  0.99951254  0.00000000  1
  W  W10  1  0.50433999  0.25550029  0.50000000  1
  W  W11  1  0.49536303  0.74230833  0.50000000  1
  Mo  Mo12  1  0.24700673  0.00084056  0.50000000  1
  Mo  Mo13  1  0.00642957  0.75850322  0.50000000  1
  Mo  Mo14  1  0.75184388  0.99991361  0.50000000  1
  Mo  Mo15  1  0.75233888  0.74727450  0.00000000  1
  C  C16  1  0.24864597  0.25097308  0.50000000  1
  C  C17  1  0.24914275  0.00070915  0.00000000  1
  C  C18  1  0.00014338  0.24911519  0.00000000  1
  C  C19  1  0.99886157  0.00121533  0.50000000  1
  C  C20  1  0.25109157  0.74854962  0.50000000  1
  C  C21  1  0.25125110  0.49938290  0.00000000  1
  C  C22  1  0.00299172  0.75226587  0.00000000  1
  C  C23  1  0.99810107  0.50035286  0.50000000  1
  C  C24  1  0.74987779  0.25235210  0.50000000  1
  C  C25  1  0.75042351  0.00210400  0.00000000  1
  C  C26  1  0.49911400  0.25018772  0.00000000  1
  C  C27  1  0.50048953  0.99843824  0.50000000  1
  C  C28  1  0.74966020  0.74816454  0.50000000  1
  C  C29  1  0.74975442  0.49800801  0.00000000  1
  C  C30  1  0.49773924  0.74842187  0.00000000  1
  C  C31  1  0.50231973  0.49959865  0.50000000  1
