# generated using pymatgen
data_MnCrCoNi
_symmetry_space_group_name_H-M   'P 1'
_cell_length_a   7.99383892
_cell_length_b   8.63012239
_cell_length_c   4.99766537
_cell_angle_alpha   89.84607254
_cell_angle_beta   90.10485537
_cell_angle_gamma   89.94751641
_symmetry_Int_Tables_number   1
_chemical_formula_structural   MnCrCoNi
_chemical_formula_sum   'Mn8 Cr8 Co8 Ni8'
_cell_volume   344.77601225
_cell_formula_units_Z   8
loop_
 _symmetry_equiv_pos_site_id
 _symmetry_equiv_pos_as_xyz
  1  'x, y, z'
loop_
 _atom_site_type_symbol
 _atom_site_label
 _atom_site_symmetry_multiplicity
 _atom_site_fract_x
 _atom_site_fract_y
 _atom_site_fract_z
 _atom_site_occupancy
  Co  Co0  1  0.74705183  0.96013843  0.75253459  1
  Co  Co1  1  0.49634882  0.04268215  0.49568269  1
  Co  Co2  1  0.75123652  0.45793781  0.24953485  1
  Co  Co3  1  0.75022818  0.70580304  0.49749217  1
  Co  Co4  1  0.24926016  0.21152165  0.00288396  1
  Co  Co5  1  0.24868501  0.45539190  0.25482272  1
  Co  Co6  1  0.74907710  0.70537150  0.99779327  1
  Co  Co7  1  0.99780464  0.79117117  0.25146357  1
  Cr  Cr8  1  0.25323587  0.21073025  0.50089374  1
  Cr  Cr9  1  0.50159937  0.54063954  0.49888311  1
  Cr  Cr10  1  0.50720801  0.79609126  0.75048592  1
  Cr  Cr11  1  0.00334424  0.03561443  0.00107273  1
  Cr  Cr12  1  0.99589506  0.28978549  0.24501238  1
  Cr  Cr13  1  0.99477589  0.79038392  0.74532921  1
  Cr  Cr14  1  0.50396295  0.79695028  0.24637490  1
  Cr  Cr15  1  0.24470395  0.70815288  0.99853993  1
  Mn  Mn16  1  0.25495370  0.95621951  0.76323803  1
  Mn  Mn17  1  0.75334518  0.46072127  0.75331915  1
  Mn  Mn18  1  0.24565204  0.46098876  0.75330883  1
  Mn  Mn19  1  0.49630114  0.04068911  0.00435365  1
  Mn  Mn20  1  0.75339125  0.21105535  0.00153914  1
  Mn  Mn21  1  0.00240805  0.53978505  0.50298867  1
  Mn  Mn22  1  0.49963549  0.54087279  0.98558796  1
  Mn  Mn23  1  0.99688685  0.54123200  0.99194458  1
  Ni  Ni24  1  0.49855640  0.29038365  0.75133473  1
  Ni  Ni25  1  0.74995087  0.95807767  0.25277913  1
  Ni  Ni26  1  0.75016893  0.21097602  0.50311685  1
  Ni  Ni27  1  0.00224528  0.04228821  0.49847544  1
  Ni  Ni28  1  0.00163638  0.28903497  0.74740340  1
  Ni  Ni29  1  0.24943963  0.95813243  0.26044475  1
  Ni  Ni30  1  0.50100099  0.29481045  0.24422437  1
  Ni  Ni31  1  0.25001019  0.70636713  0.49714156  1
