# generated using pymatgen
data_CrCoNiW
_symmetry_space_group_name_H-M   'P 1'
_cell_length_a   8.44075942
_cell_length_b   8.65285405
_cell_length_c   5.39147828
_cell_angle_alpha   89.17189620
_cell_angle_beta   90.21590642
_cell_angle_gamma   89.38466496
_symmetry_Int_Tables_number   1
_chemical_formula_structural   CrCoNiW
_chemical_formula_sum   'Cr8 Co8 Ni8 W8'
_cell_volume   393.70869698
_cell_formula_units_Z   8
loop_
 _symmetry_equiv_pos_site_id
 _symmetry_equiv_pos_as_xyz
  1  'x, y, z'
loop_
 _atom_site_type_symbol
 _atom_site_label
 _atom_site_symmetry_multiplicity
 _atom_site_fract_x
 _atom_site_fract_y
 _atom_site_fract_z
 _atom_site_occupancy
  Co  Co0  1  0.75098905  0.04198844  0.76184017  1
  Co  Co1  1  0.24566632  0.02834755  0.75415129  1
  Co  Co2  1  0.48996505  0.22917469  0.75669481  1
  Co  Co3  1  0.75407914  0.53520084  0.74383740  1
  Co  Co4  1  0.75125168  0.29771760  0.00450002  1
  Co  Co5  1  0.99667657  0.21075004  0.25379143  1
  Co  Co6  1  0.24076029  0.28027130  0.00063973  1
  Co  Co7  1  0.26193103  0.76962098  0.50374381  1
  Cr  Cr8  1  0.25032383  0.26652708  0.50321503  1
  Cr  Cr9  1  0.48653044  0.49850615  0.50812510  1
  Cr  Cr10  1  0.99892437  0.94783960  0.96963823  1
  Cr  Cr11  1  0.99784748  0.45979341  0.50637755  1
  Cr  Cr12  1  0.99563193  0.69163813  0.74166472  1
  Cr  Cr13  1  0.25952951  0.50521569  0.26023529  1
  Cr  Cr14  1  0.51161398  0.72568591  0.25260934  1
  Cr  Cr15  1  0.99830842  0.47394448  0.01878059  1
  Ni  Ni16  1  0.99993089  0.95941882  0.51859191  1
  Ni  Ni17  1  0.23822145  0.51315496  0.73934750  1
  Ni  Ni18  1  0.50135302  0.97400076  0.00211157  1
  Ni  Ni19  1  0.51919712  0.72915163  0.73803503  1
  Ni  Ni20  1  0.74727217  0.54134781  0.24931958  1
  Ni  Ni21  1  0.75698535  0.78943428  0.51277604  1
  Ni  Ni22  1  0.49770947  0.49163060  0.98078970  1
  Ni  Ni23  1  0.75035781  0.78291540  0.97851463  1
  W  W24  1  0.50140708  0.98967529  0.51976496  1
  W  W25  1  0.76706400  0.02537727  0.22980133  1
  W  W26  1  0.73664354  0.28788205  0.51258874  1
  W  W27  1  0.00099699  0.21838859  0.77603494  1
  W  W28  1  0.23404855  0.01375407  0.24244655  1
  W  W29  1  0.49020233  0.24835527  0.22516814  1
  W  W30  1  0.99832413  0.72094337  0.25414201  1
  W  W31  1  0.27025699  0.75234798  0.98072283  1
