# generated using pymatgen
data_Ti24Al8C7N
_symmetry_space_group_name_H-M   'P 1'
_cell_length_a   8.34213354
_cell_length_b   8.34213354
_cell_length_c   8.34213354
_cell_angle_alpha   90.00000000
_cell_angle_beta   90.00000000
_cell_angle_gamma   90.00000000
_symmetry_Int_Tables_number   1
_chemical_formula_structural   Ti24Al8C7N
_chemical_formula_sum   'Ti24 Al8 C7 N1'
_cell_volume   580.53901687
_cell_formula_units_Z   1
loop_
 _symmetry_equiv_pos_site_id
 _symmetry_equiv_pos_as_xyz
  1  'x, y, z'
loop_
 _atom_site_type_symbol
 _atom_site_label
 _atom_site_symmetry_multiplicity
 _atom_site_fract_x
 _atom_site_fract_y
 _atom_site_fract_z
 _atom_site_occupancy
  Ti  Ti0  1  0.99981701  0.25000000  0.25000000  1
  Ti  Ti1  1  0.25000000  0.25000000  0.99981701  1
  Ti  Ti2  1  0.25000000  0.00012343  0.25000000  1
  Ti  Ti3  1  0.99876112  0.25000000  0.75000000  1
  Ti  Ti4  1  0.25000000  0.25000000  0.50018299  1
  Ti  Ti5  1  0.25000000  0.00018299  0.75000000  1
  Ti  Ti6  1  0.99987657  0.75000000  0.25000000  1
  Ti  Ti7  1  0.25000000  0.75000000  0.99987657  1
  Ti  Ti8  1  0.25000000  0.49987657  0.25000000  1
  Ti  Ti9  1  0.99981701  0.75000000  0.75000000  1
  Ti  Ti10  1  0.25000000  0.75000000  0.50012343  1
  Ti  Ti11  1  0.25000000  0.49981701  0.75000000  1
  Ti  Ti12  1  0.50018299  0.25000000  0.25000000  1
  Ti  Ti13  1  0.75000000  0.25000000  0.99876112  1
  Ti  Ti14  1  0.75000000  0.00018299  0.25000000  1
  Ti  Ti15  1  0.50123888  0.25000000  0.75000000  1
  Ti  Ti16  1  0.75000000  0.25000000  0.50123888  1
  Ti  Ti17  1  0.75000000  0.00123888  0.75000000  1
  Ti  Ti18  1  0.50012343  0.75000000  0.25000000  1
  Ti  Ti19  1  0.75000000  0.75000000  0.99981701  1
  Ti  Ti20  1  0.75000000  0.49981701  0.25000000  1
  Ti  Ti21  1  0.50018299  0.75000000  0.75000000  1
  Ti  Ti22  1  0.75000000  0.75000000  0.50018299  1
  Ti  Ti23  1  0.75000000  0.49876112  0.75000000  1
  Al  Al24  1  0.00010899  0.99989101  0.00010899  1
  Al  Al25  1  0.00010899  0.99989101  0.49989101  1
  Al  Al26  1  0.00010899  0.50010899  0.00010899  1
  Al  Al27  1  0.00010899  0.50010899  0.49989101  1
  Al  Al28  1  0.49989101  0.99989101  0.00010899  1
  Al  Al29  1  0.49989101  0.99989101  0.49989101  1
  Al  Al30  1  0.49989101  0.50010899  0.00010899  1
  Al  Al31  1  0.49989101  0.50010899  0.49989101  1
  C  C32  1  0.25000000  0.25000000  0.25000000  1
  C  C33  1  0.25000000  0.25000000  0.75000000  1
  C  C34  1  0.25000000  0.75000000  0.25000000  1
  C  C35  1  0.25000000  0.75000000  0.75000000  1
  C  C36  1  0.75000000  0.25000000  0.25000000  1
  C  C37  1  0.75000000  0.75000000  0.25000000  1
  C  C38  1  0.75000000  0.75000000  0.75000000  1
  N  N39  1  0.75000000  0.25000000  0.75000000  1
