# generated using pymatgen
data_Ti24Al8C5N3
_symmetry_space_group_name_H-M   'P 1'
_cell_length_a   8.32195332
_cell_length_b   8.31478389
_cell_length_c   8.31478389
_cell_angle_alpha   90.00000000
_cell_angle_beta   90.00000000
_cell_angle_gamma   90.00000000
_symmetry_Int_Tables_number   1
_chemical_formula_structural   Ti24Al8C5N3
_chemical_formula_sum   'Ti24 Al8 C5 N3'
_cell_volume   575.34349507
_cell_formula_units_Z   1
loop_
 _symmetry_equiv_pos_site_id
 _symmetry_equiv_pos_as_xyz
  1  'x, y, z'
loop_
 _atom_site_type_symbol
 _atom_site_label
 _atom_site_symmetry_multiplicity
 _atom_site_fract_x
 _atom_site_fract_y
 _atom_site_fract_z
 _atom_site_occupancy
  Ti  Ti0  1  0.00118667  0.25000000  0.25000000  1
  Ti  Ti1  1  0.25000000  0.25000000  0.00081968  1
  Ti  Ti2  1  0.25000000  0.00081968  0.25000000  1
  Ti  Ti3  1  0.00026315  0.25000000  0.75000000  1
  Ti  Ti4  1  0.25000000  0.25000000  0.49918032  1
  Ti  Ti5  1  0.25000000  0.99862159  0.75000000  1
  Ti  Ti6  1  0.00026315  0.75000000  0.25000000  1
  Ti  Ti7  1  0.25000000  0.75000000  0.99862159  1
  Ti  Ti8  1  0.25000000  0.49918032  0.25000000  1
  Ti  Ti9  1  0.00029082  0.75000000  0.75000000  1
  Ti  Ti10  1  0.25000000  0.75000000  0.50137841  1
  Ti  Ti11  1  0.25000000  0.50137841  0.75000000  1
  Ti  Ti12  1  0.49881333  0.25000000  0.25000000  1
  Ti  Ti13  1  0.75000000  0.25000000  0.99986010  1
  Ti  Ti14  1  0.75000000  0.99986010  0.25000000  1
  Ti  Ti15  1  0.49973685  0.25000000  0.75000000  1
  Ti  Ti16  1  0.75000000  0.25000000  0.50013990  1
  Ti  Ti17  1  0.75000000  0.99850991  0.75000000  1
  Ti  Ti18  1  0.49973685  0.75000000  0.25000000  1
  Ti  Ti19  1  0.75000000  0.75000000  0.99850991  1
  Ti  Ti20  1  0.75000000  0.50013990  0.25000000  1
  Ti  Ti21  1  0.49970918  0.75000000  0.75000000  1
  Ti  Ti22  1  0.75000000  0.75000000  0.50149009  1
  Ti  Ti23  1  0.75000000  0.50149009  0.75000000  1
  Al  Al24  1  0.99984542  0.00015367  0.00015367  1
  Al  Al25  1  0.99984542  0.00015367  0.49984633  1
  Al  Al26  1  0.99984542  0.49984633  0.00015367  1
  Al  Al27  1  0.99984542  0.49984633  0.49984633  1
  Al  Al28  1  0.50015458  0.00015367  0.00015367  1
  Al  Al29  1  0.50015458  0.00015367  0.49984633  1
  Al  Al30  1  0.50015458  0.49984633  0.00015367  1
  Al  Al31  1  0.50015458  0.49984633  0.49984633  1
  N  N32  1  0.25000000  0.25000000  0.25000000  1
  N  N33  1  0.25000000  0.75000000  0.75000000  1
  N  N34  1  0.75000000  0.75000000  0.75000000  1
  C  C35  1  0.25000000  0.25000000  0.75000000  1
  C  C36  1  0.25000000  0.75000000  0.25000000  1
  C  C37  1  0.75000000  0.25000000  0.25000000  1
  C  C38  1  0.75000000  0.25000000  0.75000000  1
  C  C39  1  0.75000000  0.75000000  0.25000000  1
