# generated using pymatgen
data_Ti6Al2CN
_symmetry_space_group_name_H-M   'P 1'
_cell_length_a   8.30555650
_cell_length_b   8.30459077
_cell_length_c   8.30459077
_cell_angle_alpha   90.00000000
_cell_angle_beta   90.00000000
_cell_angle_gamma   90.00000000
_symmetry_Int_Tables_number   1
_chemical_formula_structural   Ti6Al2CN
_chemical_formula_sum   'Ti24 Al8 C4 N4'
_cell_volume   572.80290206
_cell_formula_units_Z   4
loop_
 _symmetry_equiv_pos_site_id
 _symmetry_equiv_pos_as_xyz
  1  'x, y, z'
loop_
 _atom_site_type_symbol
 _atom_site_label
 _atom_site_symmetry_multiplicity
 _atom_site_fract_x
 _atom_site_fract_y
 _atom_site_fract_z
 _atom_site_occupancy
  Ti  Ti0  1  0.00125828  0.25000000  0.25000000  1
  Ti  Ti1  1  0.25000000  0.25000000  0.99936029  1
  Ti  Ti2  1  0.25000000  0.00172277  0.25000000  1
  Ti  Ti3  1  -0.00000000  0.25000000  0.75000000  1
  Ti  Ti4  1  0.25000000  0.25000000  0.50063971  1
  Ti  Ti5  1  0.25000000  0.00180753  0.75000000  1
  Ti  Ti6  1  0.00000000  0.75000000  0.25000000  1
  Ti  Ti7  1  0.25000000  0.75000000  0.99957264  1
  Ti  Ti8  1  0.25000000  0.49827723  0.25000000  1
  Ti  Ti9  1  0.99874172  0.75000000  0.75000000  1
  Ti  Ti10  1  0.25000000  0.75000000  0.50042736  1
  Ti  Ti11  1  0.25000000  0.49819247  0.75000000  1
  Ti  Ti12  1  0.49874172  0.25000000  0.25000000  1
  Ti  Ti13  1  0.75000000  0.25000000  0.99819247  1
  Ti  Ti14  1  0.75000000  0.00042736  0.25000000  1
  Ti  Ti15  1  0.50000000  0.25000000  0.75000000  1
  Ti  Ti16  1  0.75000000  0.25000000  0.50180753  1
  Ti  Ti17  1  0.75000000  0.00063971  0.75000000  1
  Ti  Ti18  1  0.50000000  0.75000000  0.25000000  1
  Ti  Ti19  1  0.75000000  0.75000000  0.99827723  1
  Ti  Ti20  1  0.75000000  0.49957264  0.25000000  1
  Ti  Ti21  1  0.50125828  0.75000000  0.75000000  1
  Ti  Ti22  1  0.75000000  0.75000000  0.50172277  1
  Ti  Ti23  1  0.75000000  0.49936029  0.75000000  1
  Al  Al24  1  0.00000000  0.99971157  0.00028843  1
  Al  Al25  1  0.00000000  0.99971157  0.49971157  1
  Al  Al26  1  0.00000000  0.50028843  0.00028843  1
  Al  Al27  1  0.00000000  0.50028843  0.49971157  1
  Al  Al28  1  0.50000000  0.99971157  0.00028843  1
  Al  Al29  1  0.50000000  0.99971157  0.49971157  1
  Al  Al30  1  0.50000000  0.50028843  0.00028843  1
  Al  Al31  1  0.50000000  0.50028843  0.49971157  1
  N  N32  1  0.25000000  0.25000000  0.25000000  1
  N  N33  1  0.25000000  0.25000000  0.75000000  1
  N  N34  1  0.75000000  0.25000000  0.75000000  1
  N  N35  1  0.75000000  0.75000000  0.75000000  1
  C  C36  1  0.25000000  0.75000000  0.25000000  1
  C  C37  1  0.25000000  0.75000000  0.75000000  1
  C  C38  1  0.75000000  0.25000000  0.25000000  1
  C  C39  1  0.75000000  0.75000000  0.25000000  1
