# generated using pymatgen
data_Ti24Al8C3N5
_symmetry_space_group_name_H-M   'P 1'
_cell_length_a   8.27843751
_cell_length_b   8.29705207
_cell_length_c   8.29705207
_cell_angle_alpha   90.00000000
_cell_angle_beta   90.00000000
_cell_angle_gamma   90.00000000
_symmetry_Int_Tables_number   1
_chemical_formula_structural   Ti24Al8C3N5
_chemical_formula_sum   'Ti24 Al8 C3 N5'
_cell_volume   569.89652138
_cell_formula_units_Z   1
loop_
 _symmetry_equiv_pos_site_id
 _symmetry_equiv_pos_as_xyz
  1  'x, y, z'
loop_
 _atom_site_type_symbol
 _atom_site_label
 _atom_site_symmetry_multiplicity
 _atom_site_fract_x
 _atom_site_fract_y
 _atom_site_fract_z
 _atom_site_occupancy
  Ti  Ti0  1  0.00225111  0.25000000  0.25000000  1
  Ti  Ti1  1  0.25000000  0.25000000  0.99962750  1
  Ti  Ti2  1  0.25000000  0.00021772  0.25000000  1
  Ti  Ti3  1  0.00110546  0.25000000  0.75000000  1
  Ti  Ti4  1  0.25000000  0.25000000  0.50037250  1
  Ti  Ti5  1  0.25000000  0.00037250  0.75000000  1
  Ti  Ti6  1  0.00235085  0.75000000  0.25000000  1
  Ti  Ti7  1  0.25000000  0.75000000  0.99978228  1
  Ti  Ti8  1  0.25000000  0.49978228  0.25000000  1
  Ti  Ti9  1  0.00225111  0.75000000  0.75000000  1
  Ti  Ti10  1  0.25000000  0.75000000  0.50021772  1
  Ti  Ti11  1  0.25000000  0.49962750  0.75000000  1
  Ti  Ti12  1  0.49774889  0.25000000  0.25000000  1
  Ti  Ti13  1  0.75000000  0.25000000  0.99851730  1
  Ti  Ti14  1  0.75000000  0.00029291  0.25000000  1
  Ti  Ti15  1  0.49889454  0.25000000  0.75000000  1
  Ti  Ti16  1  0.75000000  0.25000000  0.50148270  1
  Ti  Ti17  1  0.75000000  0.00148270  0.75000000  1
  Ti  Ti18  1  0.49764915  0.75000000  0.25000000  1
  Ti  Ti19  1  0.75000000  0.75000000  0.99970709  1
  Ti  Ti20  1  0.75000000  0.49970709  0.25000000  1
  Ti  Ti21  1  0.49774889  0.75000000  0.75000000  1
  Ti  Ti22  1  0.75000000  0.75000000  0.50029291  1
  Ti  Ti23  1  0.75000000  0.49851730  0.75000000  1
  Al  Al24  1  0.99963676  0.99986791  0.00013209  1
  Al  Al25  1  0.99963676  0.99986791  0.49986791  1
  Al  Al26  1  0.99963676  0.50013209  0.00013209  1
  Al  Al27  1  0.99963676  0.50013209  0.49986791  1
  Al  Al28  1  0.50036324  0.99986791  0.00013209  1
  Al  Al29  1  0.50036324  0.99986791  0.49986791  1
  Al  Al30  1  0.50036324  0.50013209  0.00013209  1
  Al  Al31  1  0.50036324  0.50013209  0.49986791  1
  N  N32  1  0.25000000  0.25000000  0.25000000  1
  N  N33  1  0.25000000  0.25000000  0.75000000  1
  N  N34  1  0.25000000  0.75000000  0.25000000  1
  N  N35  1  0.25000000  0.75000000  0.75000000  1
  N  N36  1  0.75000000  0.25000000  0.75000000  1
  C  C37  1  0.75000000  0.25000000  0.25000000  1
  C  C38  1  0.75000000  0.75000000  0.25000000  1
  C  C39  1  0.75000000  0.75000000  0.75000000  1
