# generated using pymatgen
data_Ti12Al4CN3
_symmetry_space_group_name_H-M   'P 1'
_cell_length_a   8.27529086
_cell_length_b   8.27901626
_cell_length_c   8.27901626
_cell_angle_alpha   90.00000000
_cell_angle_beta   90.00000000
_cell_angle_gamma   90.00000000
_symmetry_Int_Tables_number   1
_chemical_formula_structural   Ti12Al4CN3
_chemical_formula_sum   'Ti24 Al8 C2 N6'
_cell_volume   567.20589834
_cell_formula_units_Z   2
loop_
 _symmetry_equiv_pos_site_id
 _symmetry_equiv_pos_as_xyz
  1  'x, y, z'
loop_
 _atom_site_type_symbol
 _atom_site_label
 _atom_site_symmetry_multiplicity
 _atom_site_fract_x
 _atom_site_fract_y
 _atom_site_fract_z
 _atom_site_occupancy
  Ti  Ti0  1  0.00193773  0.25000000  0.25000000  1
  Ti  Ti1  1  0.25000000  0.25000000  0.99977030  1
  Ti  Ti2  1  0.25000000  0.99977030  0.25000000  1
  Ti  Ti3  1  0.00086217  0.25000000  0.75000000  1
  Ti  Ti4  1  0.25000000  0.25000000  0.50022970  1
  Ti  Ti5  1  0.25000000  0.00022970  0.75000000  1
  Ti  Ti6  1  0.00086217  0.75000000  0.25000000  1
  Ti  Ti7  1  0.25000000  0.75000000  0.00022970  1
  Ti  Ti8  1  0.25000000  0.50022970  0.25000000  1
  Ti  Ti9  1  0.00193773  0.75000000  0.75000000  1
  Ti  Ti10  1  0.25000000  0.75000000  0.49977030  1
  Ti  Ti11  1  0.25000000  0.49977030  0.75000000  1
  Ti  Ti12  1  0.49806227  0.25000000  0.25000000  1
  Ti  Ti13  1  0.75000000  0.25000000  0.99873372  1
  Ti  Ti14  1  0.75000000  0.99873372  0.25000000  1
  Ti  Ti15  1  0.49913783  0.25000000  0.75000000  1
  Ti  Ti16  1  0.75000000  0.25000000  0.50126628  1
  Ti  Ti17  1  0.75000000  0.00126628  0.75000000  1
  Ti  Ti18  1  0.49913783  0.75000000  0.25000000  1
  Ti  Ti19  1  0.75000000  0.75000000  0.00126628  1
  Ti  Ti20  1  0.75000000  0.50126628  0.25000000  1
  Ti  Ti21  1  0.49806227  0.75000000  0.75000000  1
  Ti  Ti22  1  0.75000000  0.75000000  0.49873372  1
  Ti  Ti23  1  0.75000000  0.49873372  0.75000000  1
  Al  Al24  1  0.99982831  -0.00000000  0.00000000  1
  Al  Al25  1  0.99982831  -0.00000000  0.50000000  1
  Al  Al26  1  0.99982831  0.50000000  0.00000000  1
  Al  Al27  1  0.99982831  0.50000000  0.50000000  1
  Al  Al28  1  0.50017169  -0.00000000  0.00000000  1
  Al  Al29  1  0.50017169  -0.00000000  0.50000000  1
  Al  Al30  1  0.50017169  0.50000000  0.00000000  1
  Al  Al31  1  0.50017169  0.50000000  0.50000000  1
  N  N32  1  0.25000000  0.25000000  0.25000000  1
  N  N33  1  0.25000000  0.25000000  0.75000000  1
  N  N34  1  0.25000000  0.75000000  0.25000000  1
  N  N35  1  0.25000000  0.75000000  0.75000000  1
  N  N36  1  0.75000000  0.25000000  0.75000000  1
  N  N37  1  0.75000000  0.75000000  0.25000000  1
  C  C38  1  0.75000000  0.25000000  0.25000000  1
  C  C39  1  0.75000000  0.75000000  0.75000000  1
