# generated using pymatgen
data_Ti3AlC2
_symmetry_space_group_name_H-M   'P 1'
_cell_length_a   3.07866577
_cell_length_b   3.07866577
_cell_length_c   18.63354123
_cell_angle_alpha   90.00000000
_cell_angle_beta   90.00000000
_cell_angle_gamma   119.99999989
_symmetry_Int_Tables_number   1
_chemical_formula_structural   Ti3AlC2
_chemical_formula_sum   'Ti6 Al2 C4'
_cell_volume   152.95057605
_cell_formula_units_Z   2
loop_
 _symmetry_equiv_pos_site_id
 _symmetry_equiv_pos_as_xyz
  1  'x, y, z'
loop_
 _atom_site_type_symbol
 _atom_site_label
 _atom_site_symmetry_multiplicity
 _atom_site_fract_x
 _atom_site_fract_y
 _atom_site_fract_z
 _atom_site_occupancy
  Ti  Ti0  1  0.33333333  0.66666667  0.62711557  1
  Ti  Ti1  1  0.66666667  0.33333333  0.12711557  1
  Ti  Ti2  1  0.66666667  0.33333333  0.37288443  1
  Ti  Ti3  1  0.33333333  0.66666667  0.87288443  1
  Ti  Ti4  1  -0.00000000  0.00000000  0.00000000  1
  Ti  Ti5  1  -0.00000000  0.00000000  0.50000000  1
  Al  Al6  1  -0.00000000  0.00000000  0.25000000  1
  Al  Al7  1  -0.00000000  0.00000000  0.75000000  1
  C  C8  1  0.33333333  0.66666667  0.06945514  1
  C  C9  1  0.66666667  0.33333333  0.56945514  1
  C  C10  1  0.66666667  0.33333333  0.93054486  1
  C  C11  1  0.33333333  0.66666667  0.43054486  1
