# generated using pymatgen
data_Ti12Al4C7N
_symmetry_space_group_name_H-M   'P 1'
_cell_length_a   6.14878746
_cell_length_b   6.14843151
_cell_length_c   18.57383631
_cell_angle_alpha   89.99705048
_cell_angle_beta   90.00000000
_cell_angle_gamma   120.00191511
_symmetry_Int_Tables_number   1
_chemical_formula_structural   Ti12Al4C7N
_chemical_formula_sum   'Ti24 Al8 C14 N2'
_cell_volume   608.10375383
_cell_formula_units_Z   2
loop_
 _symmetry_equiv_pos_site_id
 _symmetry_equiv_pos_as_xyz
  1  'x, y, z'
loop_
 _atom_site_type_symbol
 _atom_site_label
 _atom_site_symmetry_multiplicity
 _atom_site_fract_x
 _atom_site_fract_y
 _atom_site_fract_z
 _atom_site_occupancy
  Ti  Ti0  1  0.16747516  0.33188533  0.62609709  1
  Ti  Ti1  1  0.33327659  0.16655319  0.12751489  1
  Ti  Ti2  1  0.33225551  0.16451104  0.37351747  1
  Ti  Ti3  1  0.16664928  0.33314340  0.87251013  1
  Ti  Ti4  1  0.99999365  0.00000000  0.00000000  1
  Ti  Ti5  1  0.99934516  0.00000000  0.50000000  1
  Ti  Ti6  1  0.16774449  0.83548896  0.62648253  1
  Ti  Ti7  1  0.33335072  0.66685660  0.12748987  1
  Ti  Ti8  1  0.33252484  0.66811467  0.37390291  1
  Ti  Ti9  1  0.16672341  0.83344681  0.87248511  1
  Ti  Ti10  1  0.00000703  0.50001406  0.99992509  1
  Ti  Ti11  1  0.99990940  0.49981881  0.50002814  1
  Ti  Ti12  1  0.66441018  0.33188533  0.62609709  1
  Ti  Ti13  1  0.83335195  0.16670391  0.12766885  1
  Ti  Ti14  1  0.83329935  0.16659870  0.37289655  1
  Ti  Ti15  1  0.66649413  0.33314340  0.87251013  1
  Ti  Ti16  1  0.50000635  0.00000000  0.00000000  1
  Ti  Ti17  1  0.50065484  0.00000000  0.50000000  1
  Ti  Ti18  1  0.66670065  0.83340130  0.62710345  1
  Ti  Ti19  1  0.83350587  0.66685660  0.12748987  1
  Ti  Ti20  1  0.83558982  0.66811467  0.37390291  1
  Ti  Ti21  1  0.66664805  0.83329609  0.87233115  1
  Ti  Ti22  1  0.49999297  0.49998594  0.00007491  1
  Ti  Ti23  1  0.50009060  0.50018119  0.49997186  1
  Al  Al24  1  0.00069591  0.99912020  0.25077553  1
  Al  Al25  1  0.00157571  0.00087980  0.74922447  1
  Al  Al26  1  0.00085793  0.50171587  0.25082568  1
  Al  Al27  1  0.99990480  0.49980959  0.74884286  1
  Al  Al28  1  0.49842429  0.99912020  0.25077553  1
  Al  Al29  1  0.49930409  0.00087980  0.74922447  1
  Al  Al30  1  0.50009520  0.50019041  0.25115714  1
  Al  Al31  1  0.49914207  0.49828413  0.74917432  1
  C  C32  1  0.16661101  0.33335011  0.06970682  1
  C  C33  1  0.33331972  0.16663945  0.93050021  1
  C  C34  1  0.16695797  0.33321317  0.43092333  1
  C  C35  1  0.16668028  0.83336055  0.06949979  1
  C  C36  1  0.33304203  0.66678683  0.56907667  1
  C  C37  1  0.33338899  0.66664989  0.93029318  1
  C  C38  1  0.66673911  0.33335011  0.06970682  1
  C  C39  1  0.83327415  0.16654831  0.56893909  1
  C  C40  1  0.83324822  0.16649646  0.93032583  1
  C  C41  1  0.66625521  0.33321317  0.43092333  1
  C  C42  1  0.66675178  0.83350354  0.06967417  1
  C  C43  1  0.83374479  0.66678683  0.56907667  1
  C  C44  1  0.83326089  0.66664989  0.93029318  1
  C  C45  1  0.66672585  0.83345169  0.43106091  1
  N  N46  1  0.33300196  0.16600394  0.56894084  1
  N  N47  1  0.16699804  0.83399606  0.43105916  1
