# generated using pymatgen
data_Ti6Al2C3N
_symmetry_space_group_name_H-M   'P 1'
_cell_length_a   6.13394542
_cell_length_b   6.13425494
_cell_length_c   18.50646601
_cell_angle_alpha   90.00000001
_cell_angle_beta   89.99508453
_cell_angle_gamma   120.00166926
_symmetry_Int_Tables_number   1
_chemical_formula_structural   Ti6Al2C3N
_chemical_formula_sum   'Ti24 Al8 C12 N4'
_cell_volume   603.04336946
_cell_formula_units_Z   4
loop_
 _symmetry_equiv_pos_site_id
 _symmetry_equiv_pos_as_xyz
  1  'x, y, z'
loop_
 _atom_site_type_symbol
 _atom_site_label
 _atom_site_symmetry_multiplicity
 _atom_site_fract_x
 _atom_site_fract_y
 _atom_site_fract_z
 _atom_site_occupancy
  Ti  Ti0  1  0.16786161  0.33590737  0.62658766  1
  Ti  Ti1  1  0.33574080  0.16787040  0.12767983  1
  Ti  Ti2  1  0.33587436  0.16793718  0.37295674  1
  Ti  Ti3  1  0.16696554  0.33349909  0.87312621  1
  Ti  Ti4  1  0.99977203  0.99988601  0.00037771  1
  Ti  Ti5  1  0.00004733  0.00002366  0.49988612  1
  Ti  Ti6  1  0.16786161  0.83195423  0.62658766  1
  Ti  Ti7  1  0.33575880  0.66787941  0.12786534  1
  Ti  Ti8  1  0.33332649  0.66666325  0.37154364  1
  Ti  Ti9  1  0.16696554  0.83346644  0.87312621  1
  Ti  Ti10  1  0.99984249  0.49992125  0.00040756  1
  Ti  Ti11  1  0.00002820  0.50001410  0.49990334  1
  Ti  Ti12  1  0.66666272  0.33333136  0.62810917  1
  Ti  Ti13  1  0.83143330  0.16547813  0.12683658  1
  Ti  Ti14  1  0.83226024  0.16819372  0.37306571  1
  Ti  Ti15  1  0.66628794  0.33314396  0.87261856  1
  Ti  Ti16  1  0.49961472  0.99969850  0.00030891  1
  Ti  Ti17  1  0.50002696  0.00004591  0.49986397  1
  Ti  Ti18  1  0.66401064  0.83200531  0.62660174  1
  Ti  Ti19  1  0.83143330  0.66595517  0.12683658  1
  Ti  Ti20  1  0.83226024  0.66406653  0.37306571  1
  Ti  Ti21  1  0.66620423  0.83310211  0.87273525  1
  Ti  Ti22  1  0.49961472  0.49991622  0.00030891  1
  Ti  Ti23  1  0.50002696  0.49998105  0.49986397  1
  Al  Al24  1  0.99871400  0.99935700  0.24992047  1
  Al  Al25  1  0.00005240  0.00002620  0.74924836  1
  Al  Al26  1  0.99702156  0.49851078  0.24919312  1
  Al  Al27  1  0.00167343  0.50083671  0.74988963  1
  Al  Al28  1  0.50229822  0.00236695  0.24976737  1
  Al  Al29  1  0.49923239  0.99835822  0.74975102  1
  Al  Al30  1  0.50229822  0.49993127  0.24976737  1
  Al  Al31  1  0.49923239  0.50087418  0.74975102  1
  C  C32  1  0.16682216  0.33349282  0.06975877  1
  C  C33  1  0.33380063  0.16690032  0.56917006  1
  C  C34  1  0.33384755  0.16692378  0.93136014  1
  C  C35  1  0.16708033  0.33390286  0.43054332  1
  C  C36  1  0.16682216  0.83332933  0.06975877  1
  C  C37  1  0.33370402  0.66685201  0.93143462  1
  C  C38  1  0.16708033  0.83317745  0.43054332  1
  C  C39  1  0.83308206  0.16688161  0.56914246  1
  C  C40  1  0.83272144  0.16645437  0.93111496  1
  C  C41  1  0.83308206  0.66620046  0.56914246  1
  C  C42  1  0.83272144  0.66626708  0.93111496  1
  C  C43  1  0.66614872  0.83307435  0.43058019  1
  N  N44  1  0.33333883  0.66666942  0.56868620  1
  N  N45  1  0.66650390  0.33325195  0.06949073  1
  N  N46  1  0.66658825  0.33329412  0.43115678  1
  N  N47  1  0.66625275  0.83312637  0.06945084  1
