# generated using pymatgen
data_Ti12Al4C3N5
_symmetry_space_group_name_H-M   'P 1'
_cell_length_a   6.07507743
_cell_length_b   6.07543885
_cell_length_c   18.45285997
_cell_angle_alpha   89.99999999
_cell_angle_beta   90.00640334
_cell_angle_gamma   120.00196804
_symmetry_Int_Tables_number   1
_chemical_formula_structural   Ti12Al4C3N5
_chemical_formula_sum   'Ti24 Al8 C6 N10'
_cell_volume   589.81413064
_cell_formula_units_Z   2
loop_
 _symmetry_equiv_pos_site_id
 _symmetry_equiv_pos_as_xyz
  1  'x, y, z'
loop_
 _atom_site_type_symbol
 _atom_site_label
 _atom_site_symmetry_multiplicity
 _atom_site_fract_x
 _atom_site_fract_y
 _atom_site_fract_z
 _atom_site_occupancy
  Ti  Ti0  1  0.16560148  0.33126129  0.62797364  1
  Ti  Ti1  1  0.33336052  0.16668026  0.12771549  1
  Ti  Ti2  1  0.33163796  0.16581898  0.37209037  1
  Ti  Ti3  1  0.16782583  0.33560374  0.87224027  1
  Ti  Ti4  1  0.99988839  0.99994420  0.00043038  1
  Ti  Ti5  1  0.99916637  0.99958318  0.49981739  1
  Ti  Ti6  1  0.16560148  0.83434018  0.62797364  1
  Ti  Ti7  1  0.33339662  0.66669832  0.12826916  1
  Ti  Ti8  1  0.33126969  0.66563485  0.37264766  1
  Ti  Ti9  1  0.16782583  0.83222207  0.87224027  1
  Ti  Ti10  1  0.99930964  0.49965482  0.00036364  1
  Ti  Ti11  1  0.99974818  0.49987409  0.50001223  1
  Ti  Ti12  1  0.66675963  0.33337981  0.62724928  1
  Ti  Ti13  1  0.83323911  0.16664086  0.12819054  1
  Ti  Ti14  1  0.83527793  0.16764660  0.37145695  1
  Ti  Ti15  1  0.66673611  0.33336805  0.87146695  1
  Ti  Ti16  1  0.50047252  0.00070037  0.00031235  1
  Ti  Ti17  1  0.50020175  0.00003208  0.49998409  1
  Ti  Ti18  1  0.66890194  0.83445096  0.62748108  1
  Ti  Ti19  1  0.83323911  0.66659826  0.12819054  1
  Ti  Ti20  1  0.83527793  0.66763134  0.37145695  1
  Ti  Ti21  1  0.66445478  0.83222739  0.87224738  1
  Ti  Ti22  1  0.50047252  0.49977215  0.00031235  1
  Ti  Ti23  1  0.50020175  0.50016967  0.49998409  1
  Al  Al24  1  0.00099065  0.00049532  0.24932957  1
  Al  Al25  1  0.99992150  0.99996075  0.75013623  1
  Al  Al26  1  0.00090897  0.50045448  0.24935935  1
  Al  Al27  1  0.00022077  0.50011038  0.74928825  1
  Al  Al28  1  0.49907016  0.99953310  0.24975619  1
  Al  Al29  1  0.50015791  0.99981524  0.74924230  1
  Al  Al30  1  0.49907016  0.49953706  0.24975619  1
  Al  Al31  1  0.50015791  0.50034267  0.74924230  1
  N  N32  1  0.16691650  0.33413918  0.06924027  1
  N  N33  1  0.33234144  0.16617072  0.56888141  1
  N  N34  1  0.16590862  0.33228161  0.43148803  1
  N  N35  1  0.16691650  0.83277731  0.06924027  1
  N  N36  1  0.33333926  0.66666963  0.93194288  1
  N  N37  1  0.16590862  0.83362701  0.43148803  1
  N  N38  1  0.66686432  0.33343216  0.06907969  1
  N  N39  1  0.83423859  0.16694784  0.56866245  1
  N  N40  1  0.66601631  0.83300815  0.06927809  1
  N  N41  1  0.83423859  0.66729076  0.56866245  1
  C  C42  1  0.33342361  0.16671181  0.93152013  1
  C  C43  1  0.33258360  0.66629181  0.56916191  1
  C  C44  1  0.83336814  0.16669560  0.93151319  1
  C  C45  1  0.66678397  0.33339198  0.43101193  1
  C  C46  1  0.83336814  0.66667255  0.93151319  1
  C  C47  1  0.66741872  0.83370935  0.43109903  1
