# generated using pymatgen
data_Ti6Al2CN3
_symmetry_space_group_name_H-M   'P 1'
_cell_length_a   6.05437343
_cell_length_b   6.05654789
_cell_length_c   18.45546589
_cell_angle_alpha   89.99710188
_cell_angle_beta   90.00477209
_cell_angle_gamma   120.02614298
_symmetry_Int_Tables_number   1
_chemical_formula_structural   Ti6Al2CN3
_chemical_formula_sum   'Ti24 Al8 C4 N12'
_cell_volume   585.91623910
_cell_formula_units_Z   4
loop_
 _symmetry_equiv_pos_site_id
 _symmetry_equiv_pos_as_xyz
  1  'x, y, z'
loop_
 _atom_site_type_symbol
 _atom_site_label
 _atom_site_symmetry_multiplicity
 _atom_site_fract_x
 _atom_site_fract_y
 _atom_site_fract_z
 _atom_site_occupancy
  Ti  Ti0  1  0.16657298  0.33328445  0.62828429  1
  Ti  Ti1  1  0.33415172  0.16587183  0.12829375  1
  Ti  Ti2  1  0.33573261  0.16797735  0.37148676  1
  Ti  Ti3  1  0.16570164  0.33157158  0.87180464  1
  Ti  Ti4  1  0.00039183  0.00076476  0.99997299  1
  Ti  Ti5  1  0.00084589  0.00044676  0.50030727  1
  Ti  Ti6  1  0.16663070  0.83328598  0.62836348  1
  Ti  Ti7  1  0.33423193  0.66862479  0.12787409  1
  Ti  Ti8  1  0.33574181  0.66787088  0.37154205  1
  Ti  Ti9  1  0.16570862  0.83398022  0.87143888  1
  Ti  Ti10  1  0.00059829  0.49993380  0.99985191  1
  Ti  Ti11  1  0.00083508  0.50036467  0.50026464  1
  Ti  Ti12  1  0.66661261  0.33330366  0.62845290  1
  Ti  Ti13  1  0.83174526  0.16598956  0.12816095  1
  Ti  Ti14  1  0.83164735  0.16589062  0.37222583  1
  Ti  Ti15  1  0.66670143  0.33335541  0.87169065  1
  Ti  Ti16  1  0.49955536  0.99915327  0.99970437  1
  Ti  Ti17  1  0.49900858  0.99948543  0.50025144  1
  Ti  Ti18  1  0.66657994  0.83325044  0.62860327  1
  Ti  Ti19  1  0.83336012  0.66664447  0.12755288  1
  Ti  Ti20  1  0.83162627  0.66579164  0.37251642  1
  Ti  Ti21  1  0.66824033  0.83402622  0.87137651  1
  Ti  Ti22  1  0.49931463  0.49989898  0.99986108  1
  Ti  Ti23  1  0.49892179  0.49946224  0.50027545  1
  Al  Al24  1  0.99857317  0.99868271  0.24988753  1
  Al  Al25  1  0.00023621  0.00012709  0.74955306  1
  Al  Al26  1  0.99886056  0.50010096  0.24989685  1
  Al  Al27  1  0.99966728  0.49969587  0.74989295  1
  Al  Al28  1  0.50084243  0.00039623  0.24983867  1
  Al  Al29  1  0.50016452  0.00058308  0.74986690  1
  Al  Al30  1  0.50170326  0.50104178  0.24943934  1
  Al  Al31  1  0.50001215  0.49945399  0.74987519  1
  C  C32  1  0.16641835  0.33279501  0.06889251  1
  C  C33  1  0.16696200  0.33348982  0.43134766  1
  C  C34  1  0.33360270  0.66717326  0.93097634  1
  C  C35  1  0.16708850  0.83356383  0.43145321  1
  N  N36  1  0.33408466  0.16701024  0.56879390  1
  N  N37  1  0.33337441  0.16599698  0.93140096  1
  N  N38  1  0.16676884  0.83408584  0.06839295  1
  N  N39  1  0.33410396  0.66705495  0.56884740  1
  N  N40  1  0.66627373  0.33276116  0.06854351  1
  N  N41  1  0.83242696  0.16616927  0.56902988  1
  N  N42  1  0.83258255  0.16591374  0.93143839  1
  N  N43  1  0.66629942  0.33308251  0.43197340  1
  N  N44  1  0.66726297  0.83400910  0.06832113  1
  N  N45  1  0.83241715  0.66625149  0.56900519  1
  N  N46  1  0.83350593  0.66707326  0.93123388  1
  N  N47  1  0.66631150  0.83325883  0.43194267  1
