# generated using pymatgen
data_Ti12Al4CN7
_symmetry_space_group_name_H-M   'P 1'
_cell_length_a   6.02895257
_cell_length_b   6.02895256
_cell_length_c   18.48547317
_cell_angle_alpha   89.99213934
_cell_angle_beta   90.00786065
_cell_angle_gamma   119.99365822
_symmetry_Int_Tables_number   1
_chemical_formula_structural   Ti12Al4CN7
_chemical_formula_sum   'Ti24 Al8 C2 N14'
_cell_volume   581.93259216
_cell_formula_units_Z   2
loop_
 _symmetry_equiv_pos_site_id
 _symmetry_equiv_pos_as_xyz
  1  'x, y, z'
loop_
 _atom_site_type_symbol
 _atom_site_label
 _atom_site_symmetry_multiplicity
 _atom_site_fract_x
 _atom_site_fract_y
 _atom_site_fract_z
 _atom_site_occupancy
  Ti  Ti0  1  0.16552962  0.33115386  0.62866753  1
  Ti  Ti1  1  0.33330409  0.16668838  0.12876922  1
  Ti  Ti2  1  0.33447038  0.16884614  0.37133247  1
  Ti  Ti3  1  0.16669591  0.33331162  0.87123078  1
  Ti  Ti4  1  0.00001271  0.99998729  0.99996781  1
  Ti  Ti5  1  0.00062995  0.99937005  0.49984484  1
  Ti  Ti6  1  0.16565607  0.83434393  0.62836089  1
  Ti  Ti7  1  0.33325598  0.66674402  0.12862734  1
  Ti  Ti8  1  0.33434393  0.66565607  0.37163911  1
  Ti  Ti9  1  0.16674402  0.83325598  0.87137266  1
  Ti  Ti10  1  0.00002756  0.50002756  0.00000000  1
  Ti  Ti11  1  0.00096250  0.50096250  0.50000000  1
  Ti  Ti12  1  0.66681245  0.33318755  0.62825050  1
  Ti  Ti13  1  0.83322931  0.16677069  0.12850367  1
  Ti  Ti14  1  0.83318755  0.16681245  0.37174950  1
  Ti  Ti15  1  0.66677069  0.33322931  0.87149633  1
  Ti  Ti16  1  0.49997244  0.99997244  0.00000000  1
  Ti  Ti17  1  0.49903750  0.99903750  0.50000000  1
  Ti  Ti18  1  0.66884614  0.83447038  0.62866753  1
  Ti  Ti19  1  0.83331162  0.66669591  0.12876922  1
  Ti  Ti20  1  0.83115386  0.66552962  0.37133247  1
  Ti  Ti21  1  0.66668838  0.83330409  0.87123078  1
  Ti  Ti22  1  0.49998729  0.50001271  0.00003219  1
  Ti  Ti23  1  0.49937005  0.50062995  0.50015516  1
  Al  Al24  1  0.99972737  0.00027263  0.24977546  1
  Al  Al25  1  0.00003127  0.99996873  0.75058254  1
  Al  Al26  1  0.99983329  0.49948171  0.24976597  1
  Al  Al27  1  0.99948171  0.49983329  0.75023403  1
  Al  Al28  1  0.50051829  0.00016671  0.24976597  1
  Al  Al29  1  0.50016671  0.00051829  0.75023403  1
  Al  Al30  1  0.49996873  0.50003127  0.24941746  1
  Al  Al31  1  0.50027263  0.49972737  0.75022454  1
  N  N32  1  0.16675350  0.33327006  0.06768719  1
  N  N33  1  0.33335930  0.16728153  0.56853555  1
  N  N34  1  0.33324650  0.16672994  0.93231281  1
  N  N35  1  0.16664070  0.33271847  0.43146445  1
  N  N36  1  0.16668731  0.83331269  0.06774891  1
  N  N37  1  0.33331269  0.66668731  0.93225109  1
  N  N38  1  0.66666171  0.33333829  0.06766439  1
  N  N39  1  0.83348977  0.16651023  0.56865600  1
  N  N40  1  0.83333829  0.16666171  0.93233561  1
  N  N41  1  0.66651023  0.33348977  0.43134400  1
  N  N42  1  0.66672994  0.83324650  0.06768719  1
  N  N43  1  0.83271847  0.66664070  0.56853555  1
  N  N44  1  0.83327006  0.66675350  0.93231281  1
  N  N45  1  0.66728153  0.83335930  0.43146445  1
  C  C46  1  0.33358738  0.66641262  0.56904114  1
  C  C47  1  0.16641262  0.83358738  0.43095886  1
