# generated using pymatgen
data_Hf2Ti3N5
_symmetry_space_group_name_H-M   'P 1'
_cell_length_a   12.67183382
_cell_length_b   12.67183382
_cell_length_c   12.67183382
_cell_angle_alpha   14.00688648
_cell_angle_beta   14.00688648
_cell_angle_gamma   14.00688645
_symmetry_Int_Tables_number   1
_chemical_formula_structural   Hf2Ti3N5
_chemical_formula_sum   'Hf2 Ti3 N5'
_cell_volume   103.74696770
_cell_formula_units_Z   1
loop_
 _symmetry_equiv_pos_site_id
 _symmetry_equiv_pos_as_xyz
  1  'x, y, z'
loop_
 _atom_site_type_symbol
 _atom_site_label
 _atom_site_symmetry_multiplicity
 _atom_site_fract_x
 _atom_site_fract_y
 _atom_site_fract_z
 _atom_site_occupancy
  Ti  Ti0  1  0.60324958  0.60324958  0.60324958  1
  Ti  Ti1  1  0.39675042  0.39675042  0.39675042  1
  Ti  Ti2  1  0.00000000  0.00000000  0.00000000  1
  Hf  Hf3  1  0.79742228  0.79742228  0.79742228  1
  Hf  Hf4  1  0.20257772  0.20257772  0.20257772  1
  N  N5  1  0.30154513  0.30154513  0.30154513  1
  N  N6  1  0.69845487  0.69845487  0.69845487  1
  N  N7  1  0.09589002  0.09589002  0.09589002  1
  N  N8  1  0.90410998  0.90410998  0.90410998  1
  N  N9  1  0.50000000  0.50000000  0.50000000  1
