# generated using pymatgen
data_Hf4TiN5
_symmetry_space_group_name_H-M   'P 1'
_cell_length_a   12.98386471
_cell_length_b   12.98386471
_cell_length_c   12.98386471
_cell_angle_alpha   13.99908967
_cell_angle_beta   13.99908967
_cell_angle_gamma   13.99908966
_symmetry_Int_Tables_number   1
_chemical_formula_structural   Hf4TiN5
_chemical_formula_sum   'Hf4 Ti1 N5'
_cell_volume   111.47887996
_cell_formula_units_Z   1
loop_
 _symmetry_equiv_pos_site_id
 _symmetry_equiv_pos_as_xyz
  1  'x, y, z'
loop_
 _atom_site_type_symbol
 _atom_site_label
 _atom_site_symmetry_multiplicity
 _atom_site_fract_x
 _atom_site_fract_y
 _atom_site_fract_z
 _atom_site_occupancy
  Ti  Ti0  1  0.00000000  0.00000000  0.00000000  1
  Hf  Hf1  1  0.39725907  0.39725907  0.39725907  1
  Hf  Hf2  1  0.60274093  0.60274093  0.60274093  1
  Hf  Hf3  1  0.79945793  0.79945793  0.79945793  1
  Hf  Hf4  1  0.20054207  0.20054207  0.20054207  1
  N  N5  1  0.69781134  0.69781134  0.69781134  1
  N  N6  1  0.30218866  0.30218866  0.30218866  1
  N  N7  1  0.09830235  0.09830235  0.09830235  1
  N  N8  1  0.90169765  0.90169765  0.90169765  1
  N  N9  1  0.50000000  0.50000000  0.50000000  1
