# generated using pymatgen
data_HfTiN2
_symmetry_space_group_name_H-M   'P 1'
_cell_length_a   10.23034704
_cell_length_b   10.23034704
_cell_length_c   10.23034704
_cell_angle_alpha   17.51445367
_cell_angle_beta   17.51445367
_cell_angle_gamma   17.51445369
_symmetry_Int_Tables_number   1
_chemical_formula_structural   HfTiN2
_chemical_formula_sum   'Hf2 Ti2 N4'
_cell_volume   84.63464110
_cell_formula_units_Z   2
loop_
 _symmetry_equiv_pos_site_id
 _symmetry_equiv_pos_as_xyz
  1  'x, y, z'
loop_
 _atom_site_type_symbol
 _atom_site_label
 _atom_site_symmetry_multiplicity
 _atom_site_fract_x
 _atom_site_fract_y
 _atom_site_fract_z
 _atom_site_occupancy
  Ti  Ti0  1  0.62836823  0.62836823  0.62836823  1
  Ti  Ti1  1  0.37163177  0.37163177  0.37163177  1
  Hf  Hf2  1  0.12255010  0.12255010  0.12255010  1
  Hf  Hf3  1  0.87744990  0.87744990  0.87744990  1
  N  N4  1  0.25383878  0.25383878  0.25383878  1
  N  N5  1  0.74616122  0.74616122  0.74616122  1
  N  N6  1  -0.00000000  -0.00000000  -0.00000000  1
  N  N7  1  0.50000000  0.50000000  0.50000000  1
