# generated using pymatgen
data_HfTi4N5
_symmetry_space_group_name_H-M   'P 1'
_cell_length_a   12.52057010
_cell_length_b   12.52057010
_cell_length_c   12.52057010
_cell_angle_alpha   13.98202086
_cell_angle_beta   13.98202086
_cell_angle_gamma   13.98202082
_symmetry_Int_Tables_number   1
_chemical_formula_structural   HfTi4N5
_chemical_formula_sum   'Hf1 Ti4 N5'
_cell_volume   99.72617721
_cell_formula_units_Z   1
loop_
 _symmetry_equiv_pos_site_id
 _symmetry_equiv_pos_as_xyz
  1  'x, y, z'
loop_
 _atom_site_type_symbol
 _atom_site_label
 _atom_site_symmetry_multiplicity
 _atom_site_fract_x
 _atom_site_fract_y
 _atom_site_fract_z
 _atom_site_occupancy
  Ti  Ti0  1  0.90266828  0.90266828  0.90266828  1
  Ti  Ti1  1  0.09733172  0.09733172  0.09733172  1
  Ti  Ti2  1  0.30052413  0.30052413  0.30052413  1
  Ti  Ti3  1  0.69947587  0.69947587  0.69947587  1
  Hf  Hf4  1  0.50000000  0.50000000  0.50000000  1
  N  N5  1  0.60161689  0.60161689  0.60161689  1
  N  N6  1  0.39838311  0.39838311  0.39838311  1
  N  N7  1  -0.00000000  -0.00000000  -0.00000000  1
  N  N8  1  0.79739012  0.79739012  0.79739012  1
  N  N9  1  0.20260988  0.20260988  0.20260988  1
