# generated using pymatgen
data_Hf3Ti2N5
_symmetry_space_group_name_H-M   'P 1'
_cell_length_a   12.81144448
_cell_length_b   12.81144448
_cell_length_c   12.81144448
_cell_angle_alpha   14.04293490
_cell_angle_beta   14.04293490
_cell_angle_gamma   14.04293490
_symmetry_Int_Tables_number   1
_chemical_formula_structural   Hf3Ti2N5
_chemical_formula_sum   'Hf3 Ti2 N5'
_cell_volume   107.75816099
_cell_formula_units_Z   1
loop_
 _symmetry_equiv_pos_site_id
 _symmetry_equiv_pos_as_xyz
  1  'x, y, z'
loop_
 _atom_site_type_symbol
 _atom_site_label
 _atom_site_symmetry_multiplicity
 _atom_site_fract_x
 _atom_site_fract_y
 _atom_site_fract_z
 _atom_site_occupancy
  Ti  Ti0  1  0.80294687  0.80294687  0.80294687  1
  Ti  Ti1  1  0.19705313  0.19705313  0.19705313  1
  Hf  Hf2  1  0.59680368  0.59680368  0.59680368  1
  Hf  Hf3  1  0.40319632  0.40319632  0.40319632  1
  Hf  Hf4  1  -0.00000000  -0.00000000  0.00000000  1
  N  N5  1  0.50000000  0.50000000  0.50000000  1
  N  N6  1  0.89622869  0.89622869  0.89622869  1
  N  N7  1  0.10377131  0.10377131  0.10377131  1
  N  N8  1  0.29816942  0.29816942  0.29816942  1
  N  N9  1  0.70183058  0.70183058  0.70183058  1
