# generated using pymatgen
data_HfTi2N3
_symmetry_space_group_name_H-M   'P 1'
_cell_length_a   3.07852636
_cell_length_b   3.07852636
_cell_length_c   7.49619160
_cell_angle_alpha   90.00000000
_cell_angle_beta   90.00000000
_cell_angle_gamma   120.00000004
_symmetry_Int_Tables_number   1
_chemical_formula_structural   HfTi2N3
_chemical_formula_sum   'Hf1 Ti2 N3'
_cell_volume   61.52577072
_cell_formula_units_Z   1
loop_
 _symmetry_equiv_pos_site_id
 _symmetry_equiv_pos_as_xyz
  1  'x, y, z'
loop_
 _atom_site_type_symbol
 _atom_site_label
 _atom_site_symmetry_multiplicity
 _atom_site_fract_x
 _atom_site_fract_y
 _atom_site_fract_z
 _atom_site_occupancy
  Ti  Ti0  1  0.33333333  0.66666667  0.84371733  1
  Ti  Ti1  1  0.66666667  0.33333333  0.15628267  1
  Hf  Hf2  1  0.00000000  0.00000000  0.50000000  1
  N  N3  1  0.33333333  0.66666667  0.32445416  1
  N  N4  1  0.66666667  0.33333333  0.67554584  1
  N  N5  1  0.00000000  0.00000000  0.00000000  1
