# generated using pymatgen
data_Hf3TiN4
_symmetry_space_group_name_H-M   'P 1'
_cell_length_a   10.41211924
_cell_length_b   10.41211924
_cell_length_c   10.41211924
_cell_angle_alpha   17.43775918
_cell_angle_beta   17.43775918
_cell_angle_gamma   17.43775916
_symmetry_Int_Tables_number   1
_chemical_formula_structural   Hf3TiN4
_chemical_formula_sum   'Hf3 Ti1 N4'
_cell_volume   88.46515775
_cell_formula_units_Z   1
loop_
 _symmetry_equiv_pos_site_id
 _symmetry_equiv_pos_as_xyz
  1  'x, y, z'
loop_
 _atom_site_type_symbol
 _atom_site_label
 _atom_site_symmetry_multiplicity
 _atom_site_fract_x
 _atom_site_fract_y
 _atom_site_fract_z
 _atom_site_occupancy
  Ti  Ti0  1  -0.00000000  -0.00000000  -0.00000000  1
  Hf  Hf1  1  0.74711697  0.74711697  0.74711697  1
  Hf  Hf2  1  0.25288303  0.25288303  0.25288303  1
  Hf  Hf3  1  0.50000000  0.50000000  0.50000000  1
  N  N4  1  0.62743065  0.62743065  0.62743065  1
  N  N5  1  0.37256935  0.37256935  0.37256935  1
  N  N6  1  0.12352026  0.12352026  0.12352026  1
  N  N7  1  0.87647974  0.87647974  0.87647974  1
