# generated using pymatgen
data_Zr3Ti2N5
_symmetry_space_group_name_H-M   'P 1'
_cell_length_a   12.93758432
_cell_length_b   12.93758432
_cell_length_c   12.93758432
_cell_angle_alpha   13.98874292
_cell_angle_beta   13.98874292
_cell_angle_gamma   13.98874294
_symmetry_Int_Tables_number   1
_chemical_formula_structural   Zr3Ti2N5
_chemical_formula_sum   'Zr3 Ti2 N5'
_cell_volume   110.13051341
_cell_formula_units_Z   1
loop_
 _symmetry_equiv_pos_site_id
 _symmetry_equiv_pos_as_xyz
  1  'x, y, z'
loop_
 _atom_site_type_symbol
 _atom_site_label
 _atom_site_symmetry_multiplicity
 _atom_site_fract_x
 _atom_site_fract_y
 _atom_site_fract_z
 _atom_site_occupancy
  Ti  Ti0  1  0.60075521  0.60075521  0.60075521  1
  Ti  Ti1  1  0.39924479  0.39924479  0.39924479  1
  Zr  Zr2  1  0.00000000  0.00000000  -0.00000000  1
  Zr  Zr3  1  0.79794902  0.79794902  0.79794902  1
  Zr  Zr4  1  0.20205098  0.20205098  0.20205098  1
  N  N5  1  0.29841906  0.29841906  0.29841906  1
  N  N6  1  0.70158094  0.70158094  0.70158094  1
  N  N7  1  0.09638539  0.09638539  0.09638539  1
  N  N8  1  0.90361461  0.90361461  0.90361461  1
  N  N9  1  0.50000000  0.50000000  0.50000000  1
