# generated using pymatgen
data_Zr2Ti3N5
_symmetry_space_group_name_H-M   'P 1'
_cell_length_a   12.76327468
_cell_length_b   12.76327468
_cell_length_c   12.76327468
_cell_angle_alpha   13.96025997
_cell_angle_beta   13.96025997
_cell_angle_gamma   13.96026000
_symmetry_Int_Tables_number   1
_chemical_formula_structural   Zr2Ti3N5
_chemical_formula_sum   'Zr2 Ti3 N5'
_cell_volume   105.31508438
_cell_formula_units_Z   1
loop_
 _symmetry_equiv_pos_site_id
 _symmetry_equiv_pos_as_xyz
  1  'x, y, z'
loop_
 _atom_site_type_symbol
 _atom_site_label
 _atom_site_symmetry_multiplicity
 _atom_site_fract_x
 _atom_site_fract_y
 _atom_site_fract_z
 _atom_site_occupancy
  Ti  Ti0  1  0.80198514  0.80198514  0.80198514  1
  Ti  Ti1  1  0.19801486  0.19801486  0.19801486  1
  Ti  Ti2  1  0.00000000  0.00000000  0.00000000  1
  Zr  Zr3  1  0.59914885  0.59914885  0.59914885  1
  Zr  Zr4  1  0.40085115  0.40085115  0.40085115  1
  N  N5  1  0.50000000  0.50000000  0.50000000  1
  N  N6  1  0.89625993  0.89625993  0.89625993  1
  N  N7  1  0.10374007  0.10374007  0.10374007  1
  N  N8  1  0.30194794  0.30194794  0.30194794  1
  N  N9  1  0.69805206  0.69805206  0.69805206  1
