# generated using pymatgen
data_ZrTiN2
_symmetry_space_group_name_H-M   'P 1'
_cell_length_a   10.34034898
_cell_length_b   10.34034898
_cell_length_c   10.34034898
_cell_angle_alpha   17.38542790
_cell_angle_beta   17.38542790
_cell_angle_gamma   17.38542790
_symmetry_Int_Tables_number   1
_chemical_formula_structural   ZrTiN2
_chemical_formula_sum   'Zr2 Ti2 N4'
_cell_volume   86.14117613
_cell_formula_units_Z   2
loop_
 _symmetry_equiv_pos_site_id
 _symmetry_equiv_pos_as_xyz
  1  'x, y, z'
loop_
 _atom_site_type_symbol
 _atom_site_label
 _atom_site_symmetry_multiplicity
 _atom_site_fract_x
 _atom_site_fract_y
 _atom_site_fract_z
 _atom_site_occupancy
  Ti  Ti0  1  0.62766331  0.62766331  0.62766331  1
  Ti  Ti1  1  0.37233669  0.37233669  0.37233669  1
  Zr  Zr2  1  0.12189731  0.12189731  0.12189731  1
  Zr  Zr3  1  0.87810269  0.87810269  0.87810269  1
  N  N4  1  0.25590351  0.25590351  0.25590351  1
  N  N5  1  0.74409649  0.74409649  0.74409649  1
  N  N6  1  -0.00000000  -0.00000000  0.00000000  1
  N  N7  1  0.50000000  0.50000000  0.50000000  1
