# generated using pymatgen
data_MnCrNiW
_symmetry_space_group_name_H-M   'P 1'
_cell_length_a   7.56442979
_cell_length_b   7.58227149
_cell_length_c   7.46193599
_cell_angle_alpha   104.92518880
_cell_angle_beta   104.54136035
_cell_angle_gamma   89.96802697
_symmetry_Int_Tables_number   1
_chemical_formula_structural   MnCrNiW
_chemical_formula_sum   'Mn8 Cr8 Ni8 W8'
_cell_volume   399.35595259
_cell_formula_units_Z   8
loop_
 _symmetry_equiv_pos_site_id
 _symmetry_equiv_pos_as_xyz
  1  'x, y, z'
loop_
 _atom_site_type_symbol
 _atom_site_label
 _atom_site_symmetry_multiplicity
 _atom_site_fract_x
 _atom_site_fract_y
 _atom_site_fract_z
 _atom_site_occupancy
  Cr  Cr0  1  0.92898302  0.19624186  0.78455037  1
  Cr  Cr1  1  0.45150734  0.68806951  0.78024144  1
  Cr  Cr2  1  0.40237690  0.87505615  0.47419172  1
  Cr  Cr3  1  0.80584111  0.54549684  0.23923756  1
  Cr  Cr4  1  0.61136617  0.12254007  0.49433918  1
  Cr  Cr5  1  0.80796779  0.06443593  0.20477026  1
  Cr  Cr6  1  0.30717674  0.06807788  0.23933931  1
  Cr  Cr7  1  0.50775176  0.01037585  0.00487851  1
  Mn  Mn8  1  0.68368862  0.94684167  0.78486597  1
  Mn  Mn9  1  0.56400347  0.81003677  0.20993622  1
  Mn  Mn10  1  0.76297056  0.74148442  0.00827766  1
  Mn  Mn11  1  0.31489406  0.55548270  0.23308972  1
  Mn  Mn12  1  0.74583168  0.26548901  0.00372357  1
  Mn  Mn13  1  0.50492931  0.49026312  0.01494986  1
  Mn  Mn14  1  0.13049717  0.13483676  0.49551026  1
  Mn  Mn15  1  0.99767407  0.01253167  0.98684077  1
  Ni  Ni16  1  0.93507647  0.68897771  0.75239333  1
  Ni  Ni17  1  0.68779852  0.43724047  0.75871235  1
  Ni  Ni18  1  0.44893675  0.18681031  0.75378912  1
  Ni  Ni19  1  0.12586602  0.61101332  0.50316239  1
  Ni  Ni20  1  0.56072451  0.30377208  0.24048667  1
  Ni  Ni21  1  0.05932134  0.31275345  0.23674689  1
  Ni  Ni22  1  0.25763258  0.24029174  0.00565775  1
  Ni  Ni23  1  0.99033899  0.50216957  0.00365454  1
  W  W24  1  0.84749293  0.89862933  0.51047575  1
  W  W25  1  0.19971832  0.94341524  0.73341596  1
  W  W26  1  0.87282321  0.35159847  0.49603850  1
  W  W27  1  0.61975184  0.62466609  0.49978065  1
  W  W28  1  0.19381486  0.42535346  0.76947838  1
  W  W29  1  0.37557591  0.37497005  0.49282021  1
  W  W30  1  0.05411016  0.81468750  0.26912986  1
  W  W31  1  0.24355779  0.75639103  0.01551526  1
