# generated using pymatgen
data_MnCrCoNi
_symmetry_space_group_name_H-M   'P 1'
_cell_length_a   5.60092026
_cell_length_b   7.38006587
_cell_length_c   8.98697269
_cell_angle_alpha   81.55194371
_cell_angle_beta   71.61112446
_cell_angle_gamma   81.08942233
_symmetry_Int_Tables_number   1
_chemical_formula_structural   MnCrCoNi
_chemical_formula_sum   'Mn8 Cr8 Co8 Ni8'
_cell_volume   346.34499881
_cell_formula_units_Z   8
loop_
 _symmetry_equiv_pos_site_id
 _symmetry_equiv_pos_as_xyz
  1  'x, y, z'
loop_
 _atom_site_type_symbol
 _atom_site_label
 _atom_site_symmetry_multiplicity
 _atom_site_fract_x
 _atom_site_fract_y
 _atom_site_fract_z
 _atom_site_occupancy
  Co  Co0  1  0.41117316  0.90741804  0.62253137  1
  Co  Co1  1  0.72351084  0.21914986  0.86809599  1
  Co  Co2  1  0.15568391  0.66133833  0.62898148  1
  Co  Co3  1  0.18396961  0.18843523  0.75005950  1
  Co  Co4  1  0.57118053  0.55929285  0.25037882  1
  Co  Co5  1  0.12051214  0.12356039  0.49910020  1
  Co  Co6  1  0.30500089  0.30554283  0.25385487  1
  Co  Co7  1  0.03610827  0.52824390  0.12769935  1
  Cr  Cr8  1  0.47162187  0.98340076  0.87265102  1
  Cr  Cr9  1  0.67375146  0.69359616  0.76655592  1
  Cr  Cr10  1  0.86797590  0.86704810  0.50575257  1
  Cr  Cr11  1  0.41601710  0.42890255  0.75957746  1
  Cr  Cr12  1  0.90051668  0.42409827  0.62233682  1
  Cr  Cr13  1  0.62168876  0.61387085  0.50129443  1
  Cr  Cr14  1  0.35264968  0.83851846  0.37232457  1
  Cr  Cr15  1  0.58213045  0.09981036  0.37154778  1
  Mn  Mn16  1  0.22369308  0.71709300  0.87066595  1
  Mn  Mn17  1  0.10957816  0.59876819  0.36598861  1
  Mn  Mn18  1  0.85414294  0.34519252  0.36483254  1
  Mn  Mn19  1  0.27632228  0.78138542  0.11816757  1
  Mn  Mn20  1  0.06837713  0.05543992  0.24789702  1
  Mn  Mn21  1  0.52966966  0.03303402  0.12305405  1
  Mn  Mn22  1  0.25241584  0.24200173  0.00915246  1
  Mn  Mn23  1  0.01519614  0.00141192  0.99927296  1
  Ni  Ni24  1  0.93839130  0.93769004  0.75098233  1
  Ni  Ni25  1  0.96520131  0.47023427  0.87714092  1
  Ni  Ni26  1  0.81632882  0.81243710  0.25299849  1
  Ni  Ni27  1  0.65604578  0.16208044  0.61905378  1
  Ni  Ni28  1  0.37102539  0.37883202  0.49833166  1
  Ni  Ni29  1  0.75060905  0.74978608  0.00514215  1
  Ni  Ni30  1  0.78428030  0.27686251  0.12232022  1
  Ni  Ni31  1  0.49523160  0.49552387  0.00225717  1
