# generated using pymatgen
data_MnCoNiW
_symmetry_space_group_name_H-M   'P 1'
_cell_length_a   8.94400393
_cell_length_b   8.35852607
_cell_length_c   5.15277794
_cell_angle_alpha   89.74138304
_cell_angle_beta   90.16587460
_cell_angle_gamma   90.27392762
_symmetry_Int_Tables_number   1
_chemical_formula_structural   MnCoNiW
_chemical_formula_sum   'Mn8 Co8 Ni8 W8'
_cell_volume   385.20501198
_cell_formula_units_Z   8
loop_
 _symmetry_equiv_pos_site_id
 _symmetry_equiv_pos_as_xyz
  1  'x, y, z'
loop_
 _atom_site_type_symbol
 _atom_site_label
 _atom_site_symmetry_multiplicity
 _atom_site_fract_x
 _atom_site_fract_y
 _atom_site_fract_z
 _atom_site_occupancy
  Co  Co0  1  0.95443924  0.25221411  0.75147537  1
  Co  Co1  1  0.46688606  0.25539421  0.25831481  1
  Co  Co2  1  0.53829753  0.49982956  0.50258734  1
  Co  Co3  1  0.04065910  0.00381819  0.99733819  1
  Co  Co4  1  0.95568225  0.74378002  0.74930337  1
  Co  Co5  1  0.46147746  0.74723764  0.24868330  1
  Co  Co6  1  0.05145382  0.49785125  0.98298393  1
  Co  Co7  1  0.20541688  0.74572256  0.98130549  1
  Mn  Mn8  1  0.78965627  0.99693206  0.77052402  1
  Mn  Mn9  1  0.29059983  0.98826901  0.73749340  1
  Mn  Mn10  1  0.79260210  0.99861532  0.24779860  1
  Mn  Mn11  1  0.29757808  0.50964232  0.76719417  1
  Mn  Mn12  1  0.54556399  0.99174947  0.99914965  1
  Mn  Mn13  1  0.20490984  0.25005364  0.99929646  1
  Mn  Mn14  1  0.29807672  0.50082554  0.22466119  1
  Mn  Mn15  1  0.70492731  0.76939550  0.01128524  1
  Ni  Ni16  1  0.70850411  0.25182108  0.50364446  1
  Ni  Ni17  1  0.45995445  0.74891153  0.75698117  1
  Ni  Ni18  1  0.70480476  0.24297388  0.00838881  1
  Ni  Ni19  1  0.78075290  0.50163215  0.25707102  1
  Ni  Ni20  1  0.71138314  0.74781835  0.49980413  1
  Ni  Ni21  1  0.04014529  0.50338286  0.50437095  1
  Ni  Ni22  1  0.20973355  0.74108826  0.49261220  1
  Ni  Ni23  1  0.54626907  0.50656314  0.01678777  1
  W  W24  1  0.54905453  0.99148474  0.50232586  1
  W  W25  1  0.45770113  0.26366985  0.77255041  1
  W  W26  1  0.79243025  0.50285335  0.76303828  1
  W  W27  1  0.02844719  0.99357742  0.52039219  1
  W  W28  1  0.28939398  0.98902234  0.22292698  1
  W  W29  1  0.21037828  0.26792411  0.49498103  1
  W  W30  1  0.95265172  0.25797412  0.23059300  1
  W  W31  1  0.96016917  0.73797244  0.22413717  1
