# generated using pymatgen
data_MnCrNiW
_symmetry_space_group_name_H-M   'P 1'
_cell_length_a   8.16143932
_cell_length_b   8.29024351
_cell_length_c   5.89486009
_cell_angle_alpha   90.55508580
_cell_angle_beta   90.20889009
_cell_angle_gamma   86.43469831
_symmetry_Int_Tables_number   1
_chemical_formula_structural   MnCrNiW
_chemical_formula_sum   'Mn8 Cr8 Ni8 W8'
_cell_volume   398.05564210
_cell_formula_units_Z   8
loop_
 _symmetry_equiv_pos_site_id
 _symmetry_equiv_pos_as_xyz
  1  'x, y, z'
loop_
 _atom_site_type_symbol
 _atom_site_label
 _atom_site_symmetry_multiplicity
 _atom_site_fract_x
 _atom_site_fract_y
 _atom_site_fract_z
 _atom_site_occupancy
  Cr  Cr0  1  0.26201040  0.01253047  0.74385444  1
  Cr  Cr1  1  0.24718899  0.01337137  0.25927402  1
  Cr  Cr2  1  0.28607913  0.26031425  0.47697004  1
  Cr  Cr3  1  0.00669246  0.51181653  0.49610393  1
  Cr  Cr4  1  0.97233181  0.74777187  0.73815523  1
  Cr  Cr5  1  0.25297559  0.51654189  0.26745909  1
  Cr  Cr6  1  0.23369591  0.77066864  0.50871233  1
  Cr  Cr7  1  0.98945111  0.76306962  0.25269418  1
  Mn  Mn8  1  0.72970003  0.99330144  0.78244243  1
  Mn  Mn9  1  0.74735700  0.52637440  0.73527092  1
  Mn  Mn10  1  0.24610337  0.51569664  0.73562271  1
  Mn  Mn11  1  0.49628778  0.97098432  0.01235106  1
  Mn  Mn12  1  0.51856522  0.21952991  0.22574042  1
  Mn  Mn13  1  0.48419566  0.46581824  0.50451888  1
  Mn  Mn14  1  0.49730516  0.73556472  0.72624732  1
  Mn  Mn15  1  0.76543161  0.77303147  0.48774343  1
  Ni  Ni16  1  0.49409744  0.21336938  0.78890973  1
  Ni  Ni17  1  0.76984879  0.01344286  0.21239084  1
  Ni  Ni18  1  0.98420750  0.99220207  0.52527957  1
  Ni  Ni19  1  0.75973095  0.26697998  0.97324306  1
  Ni  Ni20  1  0.01147854  0.98902281  0.96494629  1
  Ni  Ni21  1  0.26126287  0.27968715  0.02191038  1
  Ni  Ni22  1  0.48621881  0.71971702  0.28729625  1
  Ni  Ni23  1  0.72314986  0.75293772  0.02615719  1
  W  W24  1  0.51536147  0.98498107  0.48840936  1
  W  W25  1  0.73972163  0.23922210  0.52671464  1
  W  W26  1  0.03007199  0.25149408  0.73668287  1
  W  W27  1  0.73886886  0.50536909  0.27521978  1
  W  W28  1  0.00481722  0.23454315  0.24658015  1
  W  W29  1  0.50012947  0.48734079  0.97701969  1
  W  W30  1  0.99685795  0.51186233  0.99956983  1
  W  W31  1  0.24880542  0.76144265  0.99650993  1
