# generated using pymatgen
data_CrCoNiW
_symmetry_space_group_name_H-M   'P 1'
_cell_length_a   7.51760126
_cell_length_b   7.39218594
_cell_length_c   7.08101420
_cell_angle_alpha   90.19279726
_cell_angle_beta   89.79504825
_cell_angle_gamma   90.35588438
_symmetry_Int_Tables_number   1
_chemical_formula_structural   CrCoNiW
_chemical_formula_sum   'Cr8 Co8 Ni8 W8'
_cell_volume   393.49031831
_cell_formula_units_Z   8
loop_
 _symmetry_equiv_pos_site_id
 _symmetry_equiv_pos_as_xyz
  1  'x, y, z'
loop_
 _atom_site_type_symbol
 _atom_site_label
 _atom_site_symmetry_multiplicity
 _atom_site_fract_x
 _atom_site_fract_y
 _atom_site_fract_z
 _atom_site_occupancy
  Co  Co0  1  0.75573515  0.50055287  0.25646834  1
  Co  Co1  1  0.50069191  0.75234983  0.23556545  1
  Co  Co2  1  0.75841327  0.99466563  0.24895577  1
  Co  Co3  1  0.24154525  0.49542792  0.24961090  1
  Co  Co4  1  0.75980360  0.99629447  0.75027883  1
  Co  Co5  1  0.00268392  0.26102714  0.24496380  1
  Co  Co6  1  0.00081029  0.49958358  0.49734047  1
  Co  Co7  1  0.00266959  0.99665028  0.49947643  1
  Cr  Cr8  1  0.76819281  0.75375741  0.49634463  1
  Cr  Cr9  1  0.50341912  0.25337038  0.26389576  1
  Cr  Cr10  1  0.49973631  0.73231803  0.76229404  1
  Cr  Cr11  1  0.24586703  0.27235620  0.00532272  1
  Cr  Cr12  1  0.00734882  0.49001636  0.00176807  1
  Cr  Cr13  1  0.22565873  0.26463823  0.49044547  1
  Cr  Cr14  1  0.22366221  0.49916253  0.74819959  1
  Cr  Cr15  1  0.98360243  0.01513457  0.00208543  1
  Ni  Ni16  1  0.75508715  0.26034913  0.00511212  1
  Ni  Ni17  1  0.50260733  0.49600653  0.01573754  1
  Ni  Ni18  1  0.24136660  0.73849632  0.99757729  1
  Ni  Ni19  1  0.76288513  0.50230523  0.74869415  1
  Ni  Ni20  1  0.23779533  0.74454441  0.49986479  1
  Ni  Ni21  1  0.00171308  0.74115214  0.25624845  1
  Ni  Ni22  1  0.99635016  0.74433570  0.74320034  1
  Ni  Ni23  1  0.00080610  0.25069836  0.75181073  1
  W  W24  1  0.76843653  0.73465556  0.00771818  1
  W  W25  1  0.77831395  0.24474995  0.49193014  1
  W  W26  1  0.51614350  0.00397058  0.99771200  1
  W  W27  1  0.49472358  0.52607059  0.48791987  1
  W  W28  1  0.49828450  0.97463987  0.50110085  1
  W  W29  1  0.50794383  0.27119252  0.74524527  1
  W  W30  1  0.22996495  0.99585932  0.24224184  1
  W  W31  1  0.22773789  0.99366833  0.75487073  1
