# generated using pymatgen
data_Ti16Al8C7
_symmetry_space_group_name_H-M   'P 1'
_cell_length_a   6.10794120
_cell_length_b   6.10794121
_cell_length_c   13.77572230
_cell_angle_alpha   90.00000000
_cell_angle_beta   90.00000000
_cell_angle_gamma   119.99999997
_symmetry_Int_Tables_number   1
_chemical_formula_structural   Ti16Al8C7
_chemical_formula_sum   'Ti16 Al8 C7'
_cell_volume   445.07654354
_cell_formula_units_Z   1
loop_
 _symmetry_equiv_pos_site_id
 _symmetry_equiv_pos_as_xyz
  1  'x, y, z'
loop_
 _atom_site_type_symbol
 _atom_site_label
 _atom_site_symmetry_multiplicity
 _atom_site_fract_x
 _atom_site_fract_y
 _atom_site_fract_z
 _atom_site_occupancy
  Ti  Ti0  1  0.16670467  0.33329533  0.41654783  1
  Ti  Ti1  1  0.33333333  0.16666667  0.91643119  1
  Ti  Ti2  1  0.33333333  0.16666667  0.58340344  1
  Ti  Ti3  1  0.17226350  0.32773650  0.08563987  1
  Ti  Ti4  1  0.16670467  0.83340934  0.41654783  1
  Ti  Ti5  1  0.34452701  0.67226350  0.91436013  1
  Ti  Ti6  1  0.33340934  0.66670467  0.58345217  1
  Ti  Ti7  1  0.17226350  0.84452701  0.08563987  1
  Ti  Ti8  1  0.66659066  0.33329533  0.41654783  1
  Ti  Ti9  1  0.82773650  0.15547299  0.91436013  1
  Ti  Ti10  1  0.83329533  0.16659066  0.58345217  1
  Ti  Ti11  1  0.65547299  0.32773650  0.08563987  1
  Ti  Ti12  1  0.66666667  0.83333333  0.41659656  1
  Ti  Ti13  1  0.82773650  0.67226350  0.91436013  1
  Ti  Ti14  1  0.83329533  0.66670467  0.58345217  1
  Ti  Ti15  1  0.66666667  0.83333333  0.08356881  1
  Al  Al16  1  0.16660228  0.33339772  0.75017324  1
  Al  Al17  1  0.33333333  0.16666667  0.25101684  1
  Al  Al18  1  0.16660228  0.83320455  0.75017324  1
  Al  Al19  1  0.33320455  0.66660228  0.24982676  1
  Al  Al20  1  0.66679545  0.33339772  0.75017324  1
  Al  Al21  1  0.83339772  0.16679545  0.24982676  1
  Al  Al22  1  0.66666667  0.83333333  0.74898316  1
  Al  Al23  1  0.83339772  0.66660228  0.24982676  1
  C  C24  1  0.00000000  0.00000000  0.00000000  1
  C  C25  1  0.00000000  0.00000000  0.50000000  1
  C  C26  1  0.00000000  0.50000000  0.50000000  1
  C  C27  1  0.50000000  0.00000000  0.00000000  1
  C  C28  1  0.50000000  0.00000000  0.50000000  1
  C  C29  1  0.50000000  0.50000000  0.00000000  1
  C  C30  1  0.50000000  0.50000000  0.50000000  1
