# generated using pymatgen
data_Ti16Al8N7
_symmetry_space_group_name_H-M   'P 1'
_cell_length_a   5.98804702
_cell_length_b   5.98804703
_cell_length_c   13.66434345
_cell_angle_alpha   90.00000000
_cell_angle_beta   90.00000000
_cell_angle_gamma   120.00000008
_symmetry_Int_Tables_number   1
_chemical_formula_structural   Ti16Al8N7
_chemical_formula_sum   'Ti16 Al8 N7'
_cell_volume   424.31638755
_cell_formula_units_Z   1
loop_
 _symmetry_equiv_pos_site_id
 _symmetry_equiv_pos_as_xyz
  1  'x, y, z'
loop_
 _atom_site_type_symbol
 _atom_site_label
 _atom_site_symmetry_multiplicity
 _atom_site_fract_x
 _atom_site_fract_y
 _atom_site_fract_z
 _atom_site_occupancy
  Ti  Ti0  1  0.16650349  0.33349651  0.41467539  1
  Ti  Ti1  1  0.33333333  0.16666667  0.91632248  1
  Ti  Ti2  1  0.33333333  0.16666667  0.58457620  1
  Ti  Ti3  1  0.17179991  0.32820009  0.08704309  1
  Ti  Ti4  1  0.16650349  0.83300695  0.41467539  1
  Ti  Ti5  1  0.34359982  0.67179991  0.91295691  1
  Ti  Ti6  1  0.33300695  0.66650349  0.58532461  1
  Ti  Ti7  1  0.17179991  0.84359982  0.08704309  1
  Ti  Ti8  1  0.66699305  0.33349651  0.41467539  1
  Ti  Ti9  1  0.82820009  0.15640018  0.91295691  1
  Ti  Ti10  1  0.83349651  0.16699305  0.58532461  1
  Ti  Ti11  1  0.65640018  0.32820009  0.08704309  1
  Ti  Ti12  1  0.66666667  0.83333333  0.41542380  1
  Ti  Ti13  1  0.82820009  0.67179991  0.91295691  1
  Ti  Ti14  1  0.83349651  0.66650349  0.58532461  1
  Ti  Ti15  1  0.66666667  0.83333333  0.08367752  1
  Al  Al16  1  0.16723064  0.33276936  0.75010162  1
  Al  Al17  1  0.33333333  0.16666667  0.25106310  1
  Al  Al18  1  0.16723064  0.83446126  0.75010162  1
  Al  Al19  1  0.33446126  0.66723064  0.24989838  1
  Al  Al20  1  0.66553874  0.33276936  0.75010162  1
  Al  Al21  1  0.83276936  0.16553874  0.24989838  1
  Al  Al22  1  0.66666667  0.83333333  0.74893690  1
  Al  Al23  1  0.83276936  0.66723064  0.24989838  1
  N  N24  1  0.00000000  0.00000000  0.00000000  1
  N  N25  1  0.00000000  0.00000000  0.50000000  1
  N  N26  1  0.00000000  0.50000000  0.50000000  1
  N  N27  1  0.50000000  0.00000000  0.00000000  1
  N  N28  1  0.50000000  0.00000000  0.50000000  1
  N  N29  1  0.50000000  0.50000000  0.00000000  1
  N  N30  1  0.50000000  0.50000000  0.50000000  1
