# generated using pymatgen
data_Ti16Al8N7
_symmetry_space_group_name_H-M   'P 1'
_cell_length_a   5.98782002
_cell_length_b   5.98782002
_cell_length_c   13.66460652
_cell_angle_alpha   90.00000000
_cell_angle_beta   90.00000000
_cell_angle_gamma   120.00000000
_symmetry_Int_Tables_number   1
_chemical_formula_structural   Ti16Al8N7
_chemical_formula_sum   'Ti16 Al8 N7'
_cell_volume   424.29238572
_cell_formula_units_Z   1
loop_
 _symmetry_equiv_pos_site_id
 _symmetry_equiv_pos_as_xyz
  1  'x, y, z'
loop_
 _atom_site_type_symbol
 _atom_site_label
 _atom_site_symmetry_multiplicity
 _atom_site_fract_x
 _atom_site_fract_y
 _atom_site_fract_z
 _atom_site_occupancy
  Ti  Ti0  1  0.16666667  0.33333333  0.41631881  1
  Ti  Ti1  1  0.33349641  0.16650359  0.91467368  1
  Ti  Ti2  1  0.32820604  0.17179396  0.58705097  1
  Ti  Ti3  1  0.16666667  0.33333333  0.08458031  1
  Ti  Ti4  1  0.15641210  0.82820604  0.41294903  1
  Ti  Ti5  1  0.33349641  0.66699282  0.91467368  1
  Ti  Ti6  1  0.32820604  0.65641210  0.58705097  1
  Ti  Ti7  1  0.16699282  0.83349641  0.08532632  1
  Ti  Ti8  1  0.67179396  0.34358790  0.41294903  1
  Ti  Ti9  1  0.83300718  0.16650359  0.91467368  1
  Ti  Ti10  1  0.84358790  0.17179396  0.58705097  1
  Ti  Ti11  1  0.66650359  0.33300718  0.08532632  1
  Ti  Ti12  1  0.67179396  0.82820604  0.41294903  1
  Ti  Ti13  1  0.83333333  0.66666667  0.91541969  1
  Ti  Ti14  1  0.83333333  0.66666667  0.58368119  1
  Ti  Ti15  1  0.66650359  0.83349641  0.08532632  1
  Al  Al16  1  0.16666667  0.33333333  0.75108012  1
  Al  Al17  1  0.33276648  0.16723352  0.25010028  1
  Al  Al18  1  0.16553297  0.83276648  0.74989972  1
  Al  Al19  1  0.33276648  0.66553297  0.25010028  1
  Al  Al20  1  0.66723352  0.33446703  0.74989972  1
  Al  Al21  1  0.83446703  0.16723352  0.25010028  1
  Al  Al22  1  0.66723352  0.83276648  0.74989972  1
  Al  Al23  1  0.83333333  0.66666667  0.24891988  1
  N  N24  1  0.00000000  0.00000000  0.00000000  1
  N  N25  1  0.00000000  0.00000000  0.50000000  1
  N  N26  1  0.00000000  0.50000000  0.00000000  1
  N  N27  1  0.00000000  0.50000000  0.50000000  1
  N  N28  1  0.50000000  0.00000000  0.00000000  1
  N  N29  1  0.50000000  0.50000000  0.00000000  1
  N  N30  1  0.50000000  0.50000000  0.50000000  1
