# generated using pymatgen
data_Ti2CN
_symmetry_space_group_name_H-M   'P 1'
_cell_length_a   7.44133337
_cell_length_b   3.02952664
_cell_length_c   7.43368785
_cell_angle_alpha   90.00000000
_cell_angle_beta   70.51516082
_cell_angle_gamma   90.00000000
_symmetry_Int_Tables_number   1
_chemical_formula_structural   Ti2CN
_chemical_formula_sum   'Ti8 C4 N4'
_cell_volume   157.98544809
_cell_formula_units_Z   4
loop_
 _symmetry_equiv_pos_site_id
 _symmetry_equiv_pos_as_xyz
  1  'x, y, z'
loop_
 _atom_site_type_symbol
 _atom_site_label
 _atom_site_symmetry_multiplicity
 _atom_site_fract_x
 _atom_site_fract_y
 _atom_site_fract_z
 _atom_site_occupancy
  C  C0  1  0.24831600  0.00000000  0.75043724  1
  C  C1  1  0.75317644  0.00000000  0.25061174  1
  C  C2  1  0.37360333  0.50000000  0.37555784  1
  C  C3  1  0.50033656  0.00000000  0.99838893  1
  N  N4  1  0.12261894  0.50000000  0.12561255  1
  N  N5  1  0.87547675  0.50000000  0.87257937  1
  N  N6  1  0.99792569  0.00000000  0.50044295  1
  N  N7  1  0.62879220  0.50000000  0.62627288  1
  Ti  Ti8  1  0.87413950  0.50000000  0.37304024  1
  Ti  Ti9  1  0.99857749  0.00000000  0.99859198  1
  Ti  Ti10  1  0.62406565  0.50000000  0.12676908  1
  Ti  Ti11  1  0.74661252  0.00000000  0.75586579  1
  Ti  Ti12  1  0.37415920  0.50000000  0.87519537  1
  Ti  Ti13  1  0.50002986  0.00000000  0.49953289  1
  Ti  Ti14  1  0.12864029  0.50000000  0.62232578  1
  Ti  Ti15  1  0.25352959  0.00000000  0.24877539  1
