# generated using pymatgen
data_Ti2CN
_symmetry_space_group_name_H-M   'P 1'
_cell_length_a   6.07222542
_cell_length_b   3.03314161
_cell_length_c   8.57853866
_cell_angle_alpha   90.00000000
_cell_angle_beta   90.03775954
_cell_angle_gamma   90.00000000
_symmetry_Int_Tables_number   1
_chemical_formula_structural   Ti2CN
_chemical_formula_sum   'Ti8 C4 N4'
_cell_volume   157.99880095
_cell_formula_units_Z   4
loop_
 _symmetry_equiv_pos_site_id
 _symmetry_equiv_pos_as_xyz
  1  'x, y, z'
loop_
 _atom_site_type_symbol
 _atom_site_label
 _atom_site_symmetry_multiplicity
 _atom_site_fract_x
 _atom_site_fract_y
 _atom_site_fract_z
 _atom_site_occupancy
  C  C0  1  0.49842371  0.00000000  0.25154555  1
  C  C1  1  0.75112592  0.50000000  0.99888012  1
  C  C2  1  0.49877794  0.00000000  0.74901406  1
  C  C3  1  0.00122664  0.00000000  0.25141656  1
  N  N4  1  0.75222003  0.50000000  0.50140852  1
  N  N5  1  0.24798048  0.50000000  0.50157040  1
  N  N6  1  0.24821248  0.50000000  0.99801287  1
  N  N7  1  0.00186996  0.00000000  0.74859871  1
  Ti  Ti8  1  0.74904671  0.50000000  0.24966424  1
  Ti  Ti9  1  0.50152991  0.00000000  0.00068440  1
  Ti  Ti10  1  0.74856647  0.50000000  0.75177325  1
  Ti  Ti11  1  0.50137002  0.00000000  0.49926970  1
  Ti  Ti12  1  0.25095860  0.50000000  0.24900792  1
  Ti  Ti13  1  0.99668162  0.00000000  0.00133586  1
  Ti  Ti14  1  0.25353783  0.50000000  0.75131468  1
  Ti  Ti15  1  0.99847169  0.00000000  0.49650319  1
