# generated using pymatgen
data_Ti2CN
_symmetry_space_group_name_H-M   'P 1'
_cell_length_a   3.02732855
_cell_length_b   3.03127555
_cell_length_c   5.26168022
_cell_angle_alpha   106.70015917
_cell_angle_beta   73.30792070
_cell_angle_gamma   119.95095653
_symmetry_Int_Tables_number   1
_chemical_formula_structural   Ti2CN
_chemical_formula_sum   'Ti2 C1 N1'
_cell_volume   39.46604153
_cell_formula_units_Z   1
loop_
 _symmetry_equiv_pos_site_id
 _symmetry_equiv_pos_as_xyz
  1  'x, y, z'
loop_
 _atom_site_type_symbol
 _atom_site_label
 _atom_site_symmetry_multiplicity
 _atom_site_fract_x
 _atom_site_fract_y
 _atom_site_fract_z
 _atom_site_occupancy
  C  C0  1  0.00000000  0.50000000  0.00000000  1
  N  N1  1  0.50000000  0.00000000  0.50000000  1
  Ti  Ti2  1  0.74953840  0.75130595  0.75214469  1
  Ti  Ti3  1  0.25046160  0.24869405  0.24785531  1
