# generated using pymatgen
data_Ti4C3N
_symmetry_space_group_name_H-M   'P 1'
_cell_length_a   6.10280009
_cell_length_b   5.27957942
_cell_length_c   5.28106430
_cell_angle_alpha   80.39620953
_cell_angle_beta   73.19850987
_cell_angle_gamma   89.99193617
_symmetry_Int_Tables_number   1
_chemical_formula_structural   Ti4C3N
_chemical_formula_sum   'Ti8 C6 N2'
_cell_volume   160.40189148
_cell_formula_units_Z   2
loop_
 _symmetry_equiv_pos_site_id
 _symmetry_equiv_pos_as_xyz
  1  'x, y, z'
loop_
 _atom_site_type_symbol
 _atom_site_label
 _atom_site_symmetry_multiplicity
 _atom_site_fract_x
 _atom_site_fract_y
 _atom_site_fract_z
 _atom_site_occupancy
  C  C0  1  0.06277728  0.87641280  0.75062654  1
  C  C1  1  0.93722272  0.12358720  0.24937346  1
  C  C2  1  0.31411392  0.37493006  0.74931523  1
  C  C3  1  0.68588608  0.62506994  0.25068477  1
  C  C4  1  0.18877937  0.62610247  0.25082616  1
  C  C5  1  0.81122063  0.37389753  0.74917384  1
  N  N6  1  0.43838152  0.12519433  0.24854562  1
  N  N7  1  0.56161848  0.87480567  0.75145438  1
  Ti  Ti8  1  0.62558192  0.25061991  0.50159391  1
  Ti  Ti9  1  0.37441808  0.74938009  0.49840609  1
  Ti  Ti10  1  0.24940581  0.99978330  0.99903759  1
  Ti  Ti11  1  0.75059419  0.00021670  0.00096241  1
  Ti  Ti12  1  0.12487989  0.24978007  0.49962911  1
  Ti  Ti13  1  0.87512011  0.75021993  0.50037089  1
  Ti  Ti14  1  0.50000000  0.50000000  0.00000000  1
  Ti  Ti15  1  0.00000000  0.50000000  0.00000000  1
