# generated using pymatgen
data_Ti7AlN8
_symmetry_space_group_name_H-M   'P 1'
_cell_length_a   7.33699648
_cell_length_b   7.33699646
_cell_length_c   6.67475413
_cell_angle_alpha   111.41285063
_cell_angle_beta   111.41285063
_cell_angle_gamma   70.57759982
_symmetry_Int_Tables_number   1
_chemical_formula_structural   Ti7AlN8
_chemical_formula_sum   'Ti14 Al2 N16'
_cell_volume   303.07996107
_cell_formula_units_Z   2
loop_
 _symmetry_equiv_pos_site_id
 _symmetry_equiv_pos_as_xyz
  1  'x, y, z'
loop_
 _atom_site_type_symbol
 _atom_site_label
 _atom_site_symmetry_multiplicity
 _atom_site_fract_x
 _atom_site_fract_y
 _atom_site_fract_z
 _atom_site_occupancy
  Al  Al0  1  0.87292970  0.87292970  0.49596010  1
  Al  Al1  1  0.75207030  0.75207030  0.00403990  1
  N  N2  1  0.50868103  0.99155510  0.99971744  1
  N  N3  1  0.56938930  0.56938930  0.75874138  1
  N  N4  1  0.37483720  0.87514033  0.49988649  1
  N  N5  1  0.43749505  0.43749505  0.25060519  1
  N  N6  1  0.25016280  0.74985967  0.00011351  1
  N  N7  1  0.05561070  0.05561070  0.74125862  1
  N  N8  1  0.31250000  0.31250000  0.75000000  1
  N  N9  1  0.11631897  0.63344490  0.50028256  1
  N  N10  1  0.93042007  0.93042007  0.24908515  1
  N  N11  1  0.18750495  0.18750495  0.24939481  1
  N  N12  1  0.99155510  0.50868103  0.99971744  1
  N  N13  1  0.81250000  0.81250000  0.75000000  1
  N  N14  1  0.87514033  0.37483720  0.49988649  1
  N  N15  1  0.69457993  0.69457993  0.25091485  1
  N  N16  1  0.74985967  0.25016280  0.00011351  1
  N  N17  1  0.63344490  0.11631897  0.50028256  1
  Ti  Ti18  1  0.49823595  0.49823595  0.99858456  1
  Ti  Ti19  1  0.55979297  0.06520703  0.75000000  1
  Ti  Ti20  1  0.37343753  0.37343753  0.49898592  1
  Ti  Ti21  1  0.43223623  0.94071180  0.24979994  1
  Ti  Ti22  1  0.25156247  0.25156247  0.00101408  1
  Ti  Ti23  1  0.06520703  0.55979297  0.75000000  1
  Ti  Ti24  1  0.31250000  0.81250000  0.75000000  1
  Ti  Ti25  1  0.12676405  0.12676405  0.50141544  1
  Ti  Ti26  1  0.94071180  0.43223623  0.24979994  1
  Ti  Ti27  1  0.19276377  0.68428820  0.25020006  1
  Ti  Ti28  1  0.00257940  0.00257940  0.00202175  1
  Ti  Ti29  1  0.81250000  0.31250000  0.75000000  1
  Ti  Ti30  1  0.68428820  0.19276377  0.25020006  1
  Ti  Ti31  1  0.62242060  0.62242060  0.49797825  1
