# generated using pymatgen
data_Ti3AlN4
_symmetry_space_group_name_H-M   'P 1'
_cell_length_a   7.30254120
_cell_length_b   7.30610872
_cell_length_c   6.63859721
_cell_angle_alpha   111.34478799
_cell_angle_beta   111.36702469
_cell_angle_gamma   70.73016975
_symmetry_Int_Tables_number   1
_chemical_formula_structural   Ti3AlN4
_chemical_formula_sum   'Ti12 Al4 N16'
_cell_volume   299.15800516
_cell_formula_units_Z   4
loop_
 _symmetry_equiv_pos_site_id
 _symmetry_equiv_pos_as_xyz
  1  'x, y, z'
loop_
 _atom_site_type_symbol
 _atom_site_label
 _atom_site_symmetry_multiplicity
 _atom_site_fract_x
 _atom_site_fract_y
 _atom_site_fract_z
 _atom_site_occupancy
  Al  Al0  1  0.56449953  0.06865892  0.75431737  1
  Al  Al1  1  0.38154047  0.37050563  0.50206785  1
  Al  Al2  1  0.80536655  0.31025845  0.74488490  1
  Al  Al3  1  0.68511778  0.18978875  0.24946119  1
  N  N4  1  0.50713748  0.00810102  0.99950871  1
  N  N5  1  0.56449499  0.55070941  0.74443978  1
  N  N6  1  0.38256401  0.88288422  0.51085081  1
  N  N7  1  0.44230516  0.42861850  0.25768075  1
  N  N8  1  0.25015258  0.75017023  0.00005579  1
  N  N9  1  0.05357998  0.07179561  0.75057531  1
  N  N10  1  0.32128588  0.30803409  0.74321459  1
  N  N11  1  0.13530246  0.61358705  0.49858255  1
  N  N12  1  0.92885075  0.94666503  0.25001600  1
  N  N13  1  0.19349146  0.19255699  0.25739878  1
  N  N14  1  0.99144171  0.49118996  0.98810706  1
  N  N15  1  0.80488770  0.82012934  0.74945840  1
  N  N16  1  0.86729105  0.36828159  0.49925866  1
  N  N17  1  0.68747167  0.68755492  0.25022469  1
  N  N18  1  0.74553597  0.24593492  0.99574146  1
  N  N19  1  0.62404807  0.13421532  0.50558891  1
  Ti  Ti20  1  0.49429209  0.50960358  0.00359350  1
  Ti  Ti21  1  0.43581894  0.93098710  0.24485844  1
  Ti  Ti22  1  0.24546054  0.25366138  0.00019066  1
  Ti  Ti23  1  0.06469595  0.56477744  0.75490840  1
  Ti  Ti24  1  0.30804575  0.81166855  0.74896403  1
  Ti  Ti25  1  0.12517844  0.11914930  0.49744593  1
  Ti  Ti26  1  0.93855426  0.44243982  0.25184929  1
  Ti  Ti27  1  0.18736649  0.68821342  0.24720155  1
  Ti  Ti28  1  0.00617512  0.99303758  0.99746563  1
  Ti  Ti29  1  0.87993065  0.86866758  0.49852263  1
  Ti  Ti30  1  0.75512325  0.74788058  0.00557858  1
  Ti  Ti31  1  0.62299327  0.63027376  0.49798780  1
