# generated using pymatgen
data_Ti5Al3N8
_symmetry_space_group_name_H-M   'P 1'
_cell_length_a   7.26507586
_cell_length_b   7.26507585
_cell_length_c   6.62166142
_cell_angle_alpha   111.24651583
_cell_angle_beta   111.24651578
_cell_angle_gamma   70.54885580
_symmetry_Int_Tables_number   1
_chemical_formula_structural   Ti5Al3N8
_chemical_formula_sum   'Ti10 Al6 N16'
_cell_volume   295.30762802
_cell_formula_units_Z   2
loop_
 _symmetry_equiv_pos_site_id
 _symmetry_equiv_pos_as_xyz
  1  'x, y, z'
loop_
 _atom_site_type_symbol
 _atom_site_label
 _atom_site_symmetry_multiplicity
 _atom_site_fract_x
 _atom_site_fract_y
 _atom_site_fract_z
 _atom_site_occupancy
  Al  Al0  1  0.43586922  0.93845016  0.25596585  1
  Al  Al1  1  0.11907671  0.11907671  0.49164655  1
  Al  Al2  1  0.93845016  0.43586922  0.25596585  1
  Al  Al3  1  0.00138880  0.00138880  0.00095975  1
  Al  Al4  1  0.87521534  0.87521534  0.49916724  1
  Al  Al5  1  0.63119033  0.63119033  0.49824447  1
  N  N6  1  0.49716299  0.99744535  0.01006402  1
  N  N7  1  0.56658258  0.56658258  0.73891490  1
  N  N8  1  0.37913066  0.87534071  0.49559039  1
  N  N9  1  0.44497507  0.44497507  0.26075968  1
  N  N10  1  0.24769654  0.76556891  0.00845385  1
  N  N11  1  0.05621738  0.05621738  0.73654407  1
  N  N12  1  0.30164426  0.30164426  0.73579554  1
  N  N13  1  0.11263985  0.62615732  0.49241896  1
  N  N14  1  0.94151282  0.94151282  0.25469359  1
  N  N15  1  0.18063773  0.18063773  0.24963690  1
  N  N16  1  0.99744535  0.49716299  0.01006402  1
  N  N17  1  0.81607441  0.81607441  0.74821604  1
  N  N18  1  0.87534071  0.37913066  0.49559039  1
  N  N19  1  0.69079613  0.69079613  0.26186594  1
  N  N20  1  0.76556891  0.24769654  0.00845385  1
  N  N21  1  0.62615732  0.11263985  0.49241896  1
  Ti  Ti22  1  0.49571657  0.49571657  0.99145881  1
  Ti  Ti23  1  0.55755197  0.07277946  0.75628748  1
  Ti  Ti24  1  0.37775743  0.37775743  0.50937987  1
  Ti  Ti25  1  0.25243739  0.25243739  0.99516220  1
  Ti  Ti26  1  0.07277946  0.55755197  0.75628748  1
  Ti  Ti27  1  0.31891906  0.80787580  0.75379918  1
  Ti  Ti28  1  0.19192895  0.67671542  0.24345817  1
  Ti  Ti29  1  0.80787580  0.31891906  0.75379918  1
  Ti  Ti30  1  0.67671542  0.19192895  0.24345817  1
  Ti  Ti31  1  0.74754471  0.74754471  0.99547861  1
