# generated using pymatgen
data_TiAlN2
_symmetry_space_group_name_H-M   'P 1'
_cell_length_a   7.24067644
_cell_length_b   7.21105426
_cell_length_c   6.60975009
_cell_angle_alpha   111.60838429
_cell_angle_beta   111.55202913
_cell_angle_gamma   70.56075254
_symmetry_Int_Tables_number   1
_chemical_formula_structural   TiAlN2
_chemical_formula_sum   'Ti8 Al8 N16'
_cell_volume   290.53707107
_cell_formula_units_Z   8
loop_
 _symmetry_equiv_pos_site_id
 _symmetry_equiv_pos_as_xyz
  1  'x, y, z'
loop_
 _atom_site_type_symbol
 _atom_site_label
 _atom_site_symmetry_multiplicity
 _atom_site_fract_x
 _atom_site_fract_y
 _atom_site_fract_z
 _atom_site_occupancy
  Al  Al0  1  0.24698415  0.25140554  0.00855648  1
  Al  Al1  1  0.93271128  0.43788472  0.24544988  1
  Al  Al2  1  0.17922065  0.68266810  0.24343660  1
  Al  Al3  1  0.99411999  0.00217037  0.99960744  1
  Al  Al4  1  0.81971981  0.31087482  0.75337186  1
  Al  Al5  1  0.87664784  0.87850863  0.49978519  1
  Al  Al6  1  0.68948767  0.18683553  0.24883799  1
  Al  Al7  1  0.75705628  0.75078339  0.00389795  1
  N  N8  1  0.50585562  0.00479265  0.00768398  1
  N  N9  1  0.57976705  0.56191810  0.75998420  1
  N  N10  1  0.36653991  0.86537269  0.48879387  1
  N  N11  1  0.43071268  0.43312112  0.24360596  1
  N  N12  1  0.23953637  0.75564030  0.00721055  1
  N  N13  1  0.05622717  0.06614654  0.75813088  1
  N  N14  1  0.30750039  0.30860789  0.76462272  1
  N  N15  1  0.11590312  0.62940186  0.48508815  1
  N  N16  1  0.93447320  0.93228578  0.24228524  1
  N  N17  1  0.17876723  0.19141926  0.23870401  1
  N  N18  1  0.99723578  0.49708937  0.00150594  1
  N  N19  1  0.81602478  0.81688305  0.75424650  1
  N  N20  1  0.87042455  0.37039965  0.49024494  1
  N  N21  1  0.69977095  0.68994709  0.25172584  1
  N  N22  1  0.75879781  0.24989852  0.00750042  1
  N  N23  1  0.64134750  0.12688897  0.50100180  1
  Ti  Ti24  1  0.49296202  0.49808851  0.98646195  1
  Ti  Ti25  1  0.55286562  0.06726197  0.74221931  1
  Ti  Ti26  1  0.37621280  0.37359403  0.51278752  1
  Ti  Ti27  1  0.43666639  0.93345898  0.25382123  1
  Ti  Ti28  1  0.07280140  0.55848908  0.74202668  1
  Ti  Ti29  1  0.31851140  0.81287725  0.75217689  1
  Ti  Ti30  1  0.13740662  0.12695114  0.50417797  1
  Ti  Ti31  1  0.61774194  0.62833514  0.50105003  1
