# generated using pymatgen
data_Ti3Al5N8
_symmetry_space_group_name_H-M   'P 1'
_cell_length_a   7.18911554
_cell_length_b   7.18911554
_cell_length_c   6.59074501
_cell_angle_alpha   111.55759327
_cell_angle_beta   111.55759323
_cell_angle_gamma   70.25588010
_symmetry_Int_Tables_number   1
_chemical_formula_structural   Ti3Al5N8
_chemical_formula_sum   'Ti6 Al10 N16'
_cell_volume   286.43009170
_cell_formula_units_Z   2
loop_
 _symmetry_equiv_pos_site_id
 _symmetry_equiv_pos_as_xyz
  1  'x, y, z'
loop_
 _atom_site_type_symbol
 _atom_site_label
 _atom_site_symmetry_multiplicity
 _atom_site_fract_x
 _atom_site_fract_y
 _atom_site_fract_z
 _atom_site_occupancy
  Ti  Ti0  1  0.43502007  0.93613231  0.25794102  1
  Ti  Ti1  1  0.11892183  0.11892183  0.48605568  1
  Ti  Ti2  1  0.93613231  0.43502007  0.25794102  1
  Ti  Ti3  1  0.00465866  0.00465866  0.00324096  1
  Ti  Ti4  1  0.87176190  0.87176190  0.50212449  1
  Ti  Ti5  1  0.63332165  0.63332165  0.49333806  1
  N  N6  1  0.50153742  0.00151263  0.99254684  1
  N  N7  1  0.56157293  0.56157293  0.75648436  1
  N  N8  1  0.37155482  0.87120808  0.50682495  1
  N  N9  1  0.43338334  0.43338334  0.24285768  1
  N  N10  1  0.25006285  0.73807702  0.99550447  1
  N  N11  1  0.07062314  0.07062314  0.76205961  1
  N  N12  1  0.31595306  0.31595306  0.75158836  1
  N  N13  1  0.13769622  0.62563819  0.51045316  1
  N  N14  1  0.92994199  0.92994199  0.24081814  1
  N  N15  1  0.19913909  0.19913909  0.25225473  1
  N  N16  1  0.00151263  0.50153742  0.99254684  1
  N  N17  1  0.81026002  0.81026002  0.75558908  1
  N  N18  1  0.87120808  0.37155482  0.50682495  1
  N  N19  1  0.68255088  0.68255088  0.22682099  1
  N  N20  1  0.73807702  0.25006285  0.99550447  1
  N  N21  1  0.62563819  0.13769622  0.51045316  1
  Al  Al22  1  0.49833209  0.49833209  0.99518498  1
  Al  Al23  1  0.55901876  0.06896121  0.75492527  1
  Al  Al24  1  0.37950738  0.37950738  0.50539636  1
  Al  Al25  1  0.25133365  0.25133365  0.99712287  1
  Al  Al26  1  0.06896121  0.55901876  0.75492527  1
  Al  Al27  1  0.31762665  0.81099341  0.75283777  1
  Al  Al28  1  0.18689875  0.67893987  0.24597017  1
  Al  Al29  1  0.81099341  0.31762665  0.75283777  1
  Al  Al30  1  0.67893987  0.18689875  0.24597017  1
  Al  Al31  1  0.74786013  0.74786013  0.99505631  1
