# generated using pymatgen
data_TiAl
_symmetry_space_group_name_H-M   'P 1'
_cell_length_a   8.76908949
_cell_length_b   4.61484997
_cell_length_c   17.13680371
_cell_angle_alpha   90.00000008
_cell_angle_beta   50.81525908
_cell_angle_gamma   121.75332707
_symmetry_Int_Tables_number   1
_chemical_formula_structural   TiAl
_chemical_formula_sum   'Ti12 Al12'
_cell_volume   394.64962417
_cell_formula_units_Z   12
loop_
 _symmetry_equiv_pos_site_id
 _symmetry_equiv_pos_as_xyz
  1  'x, y, z'
loop_
 _atom_site_type_symbol
 _atom_site_label
 _atom_site_symmetry_multiplicity
 _atom_site_fract_x
 _atom_site_fract_y
 _atom_site_fract_z
 _atom_site_occupancy
  Al  Al0  1  0.34304136  0.84304136  0.09978559  1
  Al  Al1  1  0.15940679  0.15940679  0.07415615  1
  Al  Al2  1  0.17107532  0.17107532  0.39501434  1
  Al  Al3  1  0.35730759  0.85730759  0.25616816  1
  Al  Al4  1  0.32800548  0.82800548  0.76434190  1
  Al  Al5  1  0.16721112  0.16721112  0.73157097  1
  Al  Al6  1  0.31763855  0.81763855  0.60021999  1
  Al  Al7  1  0.84527837  0.34527837  0.00967032  1
  Al  Al8  1  0.84483165  0.34483165  0.18378348  1
  Al  Al9  1  0.84200707  0.34200707  0.51898200  1
  Al  Al10  1  0.65342579  0.65342579  0.82483783  1
  Al  Al11  1  0.65597299  0.65597299  0.65013732  1
  Ti  Ti12  1  0.15969794  0.15969794  0.23639670  1
  Ti  Ti13  1  0.33203075  0.83203075  0.93700386  1
  Ti  Ti14  1  0.36118983  0.86118983  0.42423560  1
  Ti  Ti15  1  0.14732587  0.14732587  0.57338757  1
  Ti  Ti16  1  0.16712678  0.16712678  0.89495529  1
  Ti  Ti17  1  0.69540386  0.69540386  0.14127075  1
  Ti  Ti18  1  0.65857639  0.65857639  0.98759105  1
  Ti  Ti19  1  0.65483372  0.65483372  0.48157236  1
  Ti  Ti20  1  0.83851854  0.33851854  0.35402413  1
  Ti  Ti21  1  0.67131120  0.67131120  0.31896617  1
  Ti  Ti22  1  0.78494714  0.28494714  0.69954301  1
  Ti  Ti23  1  0.84383592  0.34383592  0.84238546  1
