# generated using pymatgen
data_Ti3Al
_symmetry_space_group_name_H-M   'P 1'
_cell_length_a   7.49199213
_cell_length_b   4.58750310
_cell_length_c   14.91010771
_cell_angle_alpha   90.00000000
_cell_angle_beta   90.33526638
_cell_angle_gamma   127.75750663
_symmetry_Int_Tables_number   1
_chemical_formula_structural   Ti3Al
_chemical_formula_sum   'Ti18 Al6'
_cell_volume   405.13943604
_cell_formula_units_Z   6
loop_
 _symmetry_equiv_pos_site_id
 _symmetry_equiv_pos_as_xyz
  1  'x, y, z'
loop_
 _atom_site_type_symbol
 _atom_site_label
 _atom_site_symmetry_multiplicity
 _atom_site_fract_x
 _atom_site_fract_y
 _atom_site_fract_z
 _atom_site_occupancy
  Al  Al0  1  0.38484343  0.88484343  0.19253729  1
  Al  Al1  1  0.37723340  0.87723340  0.52557742  1
  Al  Al2  1  0.12785669  0.12785669  0.47745257  1
  Al  Al3  1  0.10980433  0.10980433  0.80469168  1
  Al  Al4  1  0.11017617  0.61017617  0.69201715  1
  Al  Al5  1  0.86320586  0.36320586  0.85792878  1
  Ti  Ti6  1  0.36997719  0.36997719  0.96827114  1
  Ti  Ti7  1  0.13767345  0.13767345  0.14188775  1
  Ti  Ti8  1  0.13088960  0.63088960  0.02861614  1
  Ti  Ti9  1  0.38130827  0.38130827  0.30364232  1
  Ti  Ti10  1  0.15218332  0.65218332  0.36111120  1
  Ti  Ti11  1  0.37206737  0.87206737  0.85559613  1
  Ti  Ti12  1  0.35121777  0.35121777  0.64582387  1
  Ti  Ti13  1  0.63026881  0.63026881  0.14308872  1
  Ti  Ti14  1  0.62670889  0.12670889  0.02339451  1
  Ti  Ti15  1  0.88871802  0.38871802  0.19630663  1
  Ti  Ti16  1  0.88999843  0.88999843  0.97170689  1
  Ti  Ti17  1  0.61669946  0.61669946  0.47444418  1
  Ti  Ti18  1  0.63070039  0.13070039  0.35489467  1
  Ti  Ti19  1  0.88367677  0.38367677  0.52725167  1
  Ti  Ti20  1  0.88699972  0.88699972  0.31581689  1
  Ti  Ti21  1  0.61170167  0.61170167  0.80647339  1
  Ti  Ti22  1  0.61557483  0.11557483  0.68802388  1
  Ti  Ti23  1  0.85051617  0.85051617  0.64344514  1
