# generated using pymatgen
data_TiAl
_symmetry_space_group_name_H-M   'P 1'
_cell_length_a   8.36012164
_cell_length_b   3.83174523
_cell_length_c   12.25258278
_cell_angle_alpha   90.00000000
_cell_angle_beta   89.71256915
_cell_angle_gamma   90.00000000
_symmetry_Int_Tables_number   1
_chemical_formula_structural   TiAl
_chemical_formula_sum   'Ti12 Al12'
_cell_volume   392.49253607
_cell_formula_units_Z   12
loop_
 _symmetry_equiv_pos_site_id
 _symmetry_equiv_pos_as_xyz
  1  'x, y, z'
loop_
 _atom_site_type_symbol
 _atom_site_label
 _atom_site_symmetry_multiplicity
 _atom_site_fract_x
 _atom_site_fract_y
 _atom_site_fract_z
 _atom_site_occupancy
  Ti  Ti0  1  0.00110485  0.00000000  0.00676052  1
  Ti  Ti1  1  0.26159247  0.50000000  0.00327275  1
  Ti  Ti2  1  0.99763277  0.00000000  0.32613858  1
  Ti  Ti3  1  0.25533867  0.50000000  0.33502453  1
  Ti  Ti4  1  0.23867629  0.00000000  0.83426140  1
  Ti  Ti5  1  0.25162004  0.50000000  0.66272179  1
  Ti  Ti6  1  0.73838812  0.50000000  0.00164819  1
  Ti  Ti7  1  0.50208883  0.50000000  0.50074941  1
  Ti  Ti8  1  0.74601293  0.00000000  0.50258521  1
  Ti  Ti9  1  0.74127746  0.50000000  0.33084644  1
  Ti  Ti10  1  0.76412884  0.00000000  0.83570218  1
  Ti  Ti11  1  0.75568332  0.50000000  0.66932267  1
  Al  Al12  1  0.00098482  0.50000000  0.16752789  1
  Al  Al13  1  0.24756173  0.00000000  0.16797085  1
  Al  Al14  1  0.99326862  0.50000000  0.49237861  1
  Al  Al15  1  0.24331783  0.00000000  0.49573680  1
  Al  Al16  1  0.00438350  0.00000000  0.66555959  1
  Al  Al17  1  0.00365796  0.50000000  0.83900807  1
  Al  Al18  1  0.49951570  0.00000000  0.99303021  1
  Al  Al19  1  0.49958100  0.50000000  0.16679697  1
  Al  Al20  1  0.75052687  0.00000000  0.16623558  1
  Al  Al21  1  0.50112115  0.00000000  0.33674378  1
  Al  Al22  1  0.50268538  0.00000000  0.66979974  1
  Al  Al23  1  0.49985083  0.50000000  0.83017820  1
