# generated using pymatgen
data_Ti3Al
_symmetry_space_group_name_H-M   'P 1'
_cell_length_a   8.24794040
_cell_length_b   4.17384801
_cell_length_c   11.82462377
_cell_angle_alpha   90.00000000
_cell_angle_beta   90.00000000
_cell_angle_gamma   90.00000000
_symmetry_Int_Tables_number   1
_chemical_formula_structural   Ti3Al
_chemical_formula_sum   'Ti18 Al6'
_cell_volume   407.07035486
_cell_formula_units_Z   6
loop_
 _symmetry_equiv_pos_site_id
 _symmetry_equiv_pos_as_xyz
  1  'x, y, z'
loop_
 _atom_site_type_symbol
 _atom_site_label
 _atom_site_symmetry_multiplicity
 _atom_site_fract_x
 _atom_site_fract_y
 _atom_site_fract_z
 _atom_site_occupancy
  Ti  Ti0  1  0.00316775  0.00000000  0.99601864  1
  Ti  Ti1  1  0.99682003  0.50000000  0.16774487  1
  Ti  Ti2  1  0.25000000  0.00000000  0.16813593  1
  Ti  Ti3  1  0.25000000  0.50000000  -0.00050481  1
  Ti  Ti4  1  0.99915779  0.00000000  0.33427329  1
  Ti  Ti5  1  0.99661184  0.50000000  0.50361259  1
  Ti  Ti6  1  0.25000000  0.00000000  0.50353553  1
  Ti  Ti7  1  0.25000000  0.50000000  0.33533352  1
  Ti  Ti8  1  0.99486403  0.00000000  0.66724683  1
  Ti  Ti9  1  0.25000000  0.50000000  0.66663793  1
  Ti  Ti10  1  0.49683225  0.00000000  0.99601864  1
  Ti  Ti11  1  0.50317997  0.50000000  0.16774487  1
  Ti  Ti12  1  0.75000000  0.00000000  0.15653871  1
  Ti  Ti13  1  0.75000000  0.50000000  0.99192309  1
  Ti  Ti14  1  0.50084221  0.00000000  0.33427329  1
  Ti  Ti15  1  0.50338816  0.50000000  0.50361259  1
  Ti  Ti16  1  0.50513597  0.00000000  0.66724683  1
  Ti  Ti17  1  0.75000000  0.50000000  0.67480867  1
  Al  Al18  1  0.00253521  0.50000000  0.83145885  1
  Al  Al19  1  0.25000000  0.00000000  0.83064371  1
  Al  Al20  1  0.75000000  0.00000000  0.50564787  1
  Al  Al21  1  0.75000000  0.50000000  0.33197376  1
  Al  Al22  1  0.49746479  0.50000000  0.83145885  1
  Al  Al23  1  0.75000000  0.00000000  0.83461599  1
