# generated using pymatgen
data_TiAl
_symmetry_space_group_name_H-M   'P 1'
_cell_length_a   8.95970386
_cell_length_b   9.21926000
_cell_length_c   5.67700568
_cell_angle_alpha   89.86467917
_cell_angle_beta   99.68296364
_cell_angle_gamma   121.00876050
_symmetry_Int_Tables_number   1
_chemical_formula_structural   TiAl
_chemical_formula_sum   'Ti12 Al12'
_cell_volume   394.21309545
_cell_formula_units_Z   12
loop_
 _symmetry_equiv_pos_site_id
 _symmetry_equiv_pos_as_xyz
  1  'x, y, z'
loop_
 _atom_site_type_symbol
 _atom_site_label
 _atom_site_symmetry_multiplicity
 _atom_site_fract_x
 _atom_site_fract_y
 _atom_site_fract_z
 _atom_site_occupancy
  Al  Al0  1  0.02189123  0.01443060  0.93628490  1
  Al  Al1  1  0.02745043  0.02163390  0.44742275  1
  Al  Al2  1  0.14661969  0.33449518  0.71775603  1
  Al  Al3  1  0.14366266  0.81440107  0.22318015  1
  Al  Al4  1  0.35355942  0.67027096  0.28741167  1
  Al  Al5  1  0.35291757  0.68305993  0.76505839  1
  Al  Al6  1  0.69532103  0.34265872  0.61694107  1
  Al  Al7  1  0.80514199  0.14846817  0.88735380  1
  Al  Al8  1  0.70669339  0.85634607  0.11825339  1
  Al  Al9  1  0.80662213  0.65340421  0.39097041  1
  Al  Al10  1  0.47093826  0.48317685  0.55137710  1
  Al  Al11  1  0.80930399  0.64596198  0.89265981  1
  Ti  Ti12  1  0.14466202  0.31416345  0.22152626  1
  Ti  Ti13  1  0.35525346  0.16400422  0.26979320  1
  Ti  Ti14  1  0.35320191  0.18743329  0.78409077  1
  Ti  Ti15  1  0.03739639  0.51362698  0.94461922  1
  Ti  Ti16  1  0.02609224  0.52153898  0.44366792  1
  Ti  Ti17  1  0.13380035  0.82828256  0.72066381  1
  Ti  Ti18  1  0.47384172  0.97033482  0.05922463  1
  Ti  Ti19  1  0.68233011  0.33441515  0.11077238  1
  Ti  Ti20  1  0.81599286  0.16600364  0.38929598  1
  Ti  Ti21  1  0.46974935  0.98965160  0.55847567  1
  Ti  Ti22  1  0.48356336  0.50440612  0.05783075  1
  Ti  Ti23  1  0.68399443  0.83783155  0.60536991  1
