# generated using pymatgen
data_TiAl3N4
_symmetry_space_group_name_H-M   'P 1'
_cell_length_a   7.14940162
_cell_length_b   7.16671322
_cell_length_c   6.50001823
_cell_angle_alpha   111.26221313
_cell_angle_beta   111.39460895
_cell_angle_gamma   70.74276571
_symmetry_Int_Tables_number   1
_chemical_formula_structural   TiAl3N4
_chemical_formula_sum   'Ti4 Al12 N16'
_cell_volume   281.40073379
_cell_formula_units_Z   4
loop_
 _symmetry_equiv_pos_site_id
 _symmetry_equiv_pos_as_xyz
  1  'x, y, z'
loop_
 _atom_site_type_symbol
 _atom_site_label
 _atom_site_symmetry_multiplicity
 _atom_site_fract_x
 _atom_site_fract_y
 _atom_site_fract_z
 _atom_site_occupancy
  Ti  Ti0  1  0.56368853  0.07631730  0.75298520  1
  Ti  Ti1  1  0.38984305  0.36648665  0.50379427  1
  Ti  Ti2  1  0.80214735  0.30953999  0.74070526  1
  Ti  Ti3  1  0.67918507  0.19155957  0.25545318  1
  N  N4  1  0.49173669  0.99491618  0.99991002  1
  N  N5  1  0.56075335  0.57538525  0.75585382  1
  N  N6  1  0.37078896  0.87161474  0.49309545  1
  N  N7  1  0.43263835  0.44879061  0.24490754  1
  N  N8  1  0.25002059  0.74920344  0.99703981  1
  N  N9  1  0.06698669  0.05653897  0.74705356  1
  N  N10  1  0.30332875  0.31864887  0.75896953  1
  N  N11  1  0.11993993  0.63009796  0.50049662  1
  N  N12  1  0.94379560  0.93215896  0.24775619  1
  N  N13  1  0.18369203  0.18175603  0.24423968  1
  N  N14  1  0.00417204  0.50380605  0.00861577  1
  N  N15  1  0.81899092  0.80701374  0.75419951  1
  N  N16  1  0.88169185  0.38252866  0.50140830  1
  N  N17  1  0.68721415  0.68607089  0.24922181  1
  N  N18  1  0.75565717  0.25649842  0.00699140  1
  N  N19  1  0.63139714  0.10056656  0.48946603  1
  Al  Al20  1  0.49739947  0.50779839  0.00487621  1
  Al  Al21  1  0.43392447  0.93136631  0.24399006  1
  Al  Al22  1  0.24345085  0.25004630  0.99801475  1
  Al  Al23  1  0.06404017  0.56390697  0.75251932  1
  Al  Al24  1  0.31025163  0.81292166  0.74675653  1
  Al  Al25  1  0.12392324  0.12186117  0.49636897  1
  Al  Al26  1  0.94051817  0.43980171  0.25203987  1
  Al  Al27  1  0.18641138  0.68661559  0.25084161  1
  Al  Al28  1  0.00351226  0.99486692  0.00002414  1
  Al  Al29  1  0.87979980  0.86858798  0.49861715  1
  Al  Al30  1  0.75304579  0.75038042  0.00215967  1
  Al  Al31  1  0.62605451  0.63234778  0.50162877  1
