# generated using pymatgen
data_Ti3Al
_symmetry_space_group_name_H-M   'P 1'
_cell_length_a   12.40686065
_cell_length_b   3.08324168
_cell_length_c   10.61919663
_cell_angle_alpha   90.00000000
_cell_angle_beta   89.95879916
_cell_angle_gamma   90.00000000
_symmetry_Int_Tables_number   1
_chemical_formula_structural   Ti3Al
_chemical_formula_sum   'Ti18 Al6'
_cell_volume   406.21973887
_cell_formula_units_Z   6
loop_
 _symmetry_equiv_pos_site_id
 _symmetry_equiv_pos_as_xyz
  1  'x, y, z'
loop_
 _atom_site_type_symbol
 _atom_site_label
 _atom_site_symmetry_multiplicity
 _atom_site_fract_x
 _atom_site_fract_y
 _atom_site_fract_z
 _atom_site_occupancy
  Ti  Ti0  1  0.01668164  0.00000000  0.98909769  1
  Ti  Ti1  1  0.13746228  0.50000000  0.16527188  1
  Ti  Ti2  1  0.26391643  0.00000000  0.99154737  1
  Ti  Ti3  1  0.36849710  0.50000000  0.17815673  1
  Ti  Ti4  1  0.00215307  0.00000000  0.32049830  1
  Ti  Ti5  1  0.09216772  0.50000000  0.51353266  1
  Ti  Ti6  1  0.23560700  0.00000000  0.35906967  1
  Ti  Ti7  1  0.37462304  0.50000000  0.51465084  1
  Ti  Ti8  1  0.23775931  0.00000000  0.64772197  1
  Ti  Ti9  1  0.38373832  0.50000000  0.80274943  1
  Ti  Ti10  1  0.49306561  0.00000000  -0.00449046  1
  Ti  Ti11  1  0.61160633  0.50000000  0.18046683  1
  Ti  Ti12  1  0.72921078  0.00000000  0.01560754  1
  Ti  Ti13  1  0.88949971  0.50000000  0.14193381  1
  Ti  Ti14  1  0.64735623  0.50000000  0.48644346  1
  Ti  Ti15  1  0.87427943  0.50000000  0.50069752  1
  Ti  Ti16  1  0.52037739  0.00000000  0.64745444  1
  Ti  Ti17  1  0.62240584  0.50000000  0.83466085  1
  Al  Al18  1  0.98496751  0.00000000  0.69221193  1
  Al  Al19  1  0.13841940  0.50000000  0.82310988  1
  Al  Al20  1  0.49296948  0.00000000  0.35370855  1
  Al  Al21  1  0.76797010  0.00000000  0.30844725  1
  Al  Al22  1  0.75103763  0.00000000  0.67468327  1
  Al  Al23  1  0.86422866  0.50000000  0.86276857  1
