# generated using pymatgen
data_TiAl3
_symmetry_space_group_name_H-M   'P 1'
_cell_length_a   8.39295249
_cell_length_b   3.80871779
_cell_length_c   12.24003805
_cell_angle_alpha   90.00000000
_cell_angle_beta   90.88636212
_cell_angle_gamma   90.00000000
_symmetry_Int_Tables_number   1
_chemical_formula_structural   TiAl3
_chemical_formula_sum   'Ti6 Al18'
_cell_volume   391.22298053
_cell_formula_units_Z   6
loop_
 _symmetry_equiv_pos_site_id
 _symmetry_equiv_pos_as_xyz
  1  'x, y, z'
loop_
 _atom_site_type_symbol
 _atom_site_label
 _atom_site_symmetry_multiplicity
 _atom_site_fract_x
 _atom_site_fract_y
 _atom_site_fract_z
 _atom_site_occupancy
  Al  Al0  1  0.98410815  0.00000000  0.00265134  1
  Al  Al1  1  0.98735289  0.50000000  0.16571495  1
  Al  Al2  1  0.23735356  0.00000000  0.16988588  1
  Al  Al3  1  0.24654480  0.50000000  0.00017702  1
  Al  Al4  1  0.00137482  0.00000000  0.33424373  1
  Al  Al5  1  0.99924975  0.50000000  0.50398578  1
  Al  Al6  1  0.25620504  0.00000000  0.50340620  1
  Al  Al7  1  0.25207029  0.50000000  0.33892616  1
  Al  Al8  1  0.99037779  0.50000000  0.83712812  1
  Al  Al9  1  0.24874907  0.00000000  0.83350813  1
  Al  Al10  1  0.26012078  0.50000000  0.66251991  1
  Al  Al11  1  0.49451763  0.00000000  0.00341579  1
  Al  Al12  1  0.72714949  0.00000000  0.16656600  1
  Al  Al13  1  0.51190409  0.00000000  0.33270615  1
  Al  Al14  1  0.51874559  0.00000000  0.65979771  1
  Al  Al15  1  0.50601689  0.50000000  0.83037119  1
  Al  Al16  1  0.75343728  0.00000000  0.83373396  1
  Al  Al17  1  0.76725647  0.50000000  0.65752905  1
  Ti  Ti18  1  0.01418233  0.00000000  0.67176036  1
  Ti  Ti19  1  0.47355291  0.50000000  0.17233916  1
  Ti  Ti20  1  0.73870150  0.50000000  0.00587768  1
  Ti  Ti21  1  0.51035369  0.50000000  0.49194886  1
  Ti  Ti22  1  0.76099574  0.00000000  0.49484992  1
  Ti  Ti23  1  0.75967947  0.50000000  0.32695689  1
