# generated using pymatgen
data_Ti3Al
_symmetry_space_group_name_H-M   'P 1'
_cell_length_a   10.09855396
_cell_length_b   8.94738646
_cell_length_c   5.45987029
_cell_angle_alpha   95.80605258
_cell_angle_beta   89.80814951
_cell_angle_gamma   124.62705106
_symmetry_Int_Tables_number   1
_chemical_formula_structural   Ti3Al
_chemical_formula_sum   'Ti18 Al6'
_cell_volume   402.97926989
_cell_formula_units_Z   6
loop_
 _symmetry_equiv_pos_site_id
 _symmetry_equiv_pos_as_xyz
  1  'x, y, z'
loop_
 _atom_site_type_symbol
 _atom_site_label
 _atom_site_symmetry_multiplicity
 _atom_site_fract_x
 _atom_site_fract_y
 _atom_site_fract_z
 _atom_site_occupancy
  Ti  Ti0  1  0.04125975  0.00104802  0.01282111  1
  Ti  Ti1  1  0.20175385  0.33712929  0.32588196  1
  Ti  Ti2  1  0.37961501  0.17508654  0.17011631  1
  Ti  Ti3  1  0.11633699  0.33177888  0.82636763  1
  Ti  Ti4  1  0.28417828  0.17204722  0.67100363  1
  Ti  Ti5  1  0.96343209  0.50145789  0.99691378  1
  Ti  Ti6  1  0.03864643  0.50449945  0.50243182  1
  Ti  Ti7  1  0.21813605  0.84235528  0.85651341  1
  Ti  Ti8  1  0.37650369  0.67008223  0.68515480  1
  Ti  Ti9  1  0.54626622  0.00217279  0.98978091  1
  Ti  Ti10  1  0.86777201  0.15746496  0.16402056  1
  Ti  Ti11  1  0.45292992  0.00232414  0.49811409  1
  Ti  Ti12  1  0.63374780  0.33639646  0.82992200  1
  Ti  Ti13  1  0.78640118  0.15577100  0.65487067  1
  Ti  Ti14  1  0.61797450  0.81788051  0.32333303  1
  Ti  Ti15  1  0.79412140  0.66466382  0.16221680  1
  Ti  Ti16  1  0.53643699  0.49231911  0.50061655  1
  Ti  Ti17  1  0.70992138  0.82029995  0.81240536  1
  Al  Al18  1  0.95746901  -0.00088197  0.49765756  1
  Al  Al19  1  0.12783299  0.84047490  0.34416755  1
  Al  Al20  1  0.29438970  0.67247054  0.17751472  1
  Al  Al21  1  0.71089808  0.33356354  0.32649914  1
  Al  Al22  1  0.46081784  0.49903153  0.99917400  1
  Al  Al23  1  0.88315883  0.67056392  0.67250262  1
