# generated using pymatgen
data_TiAl7N8
_symmetry_space_group_name_H-M   'P 1'
_cell_length_a   7.12117882
_cell_length_b   7.12117881
_cell_length_c   6.46889425
_cell_angle_alpha   111.46337239
_cell_angle_beta   111.46337232
_cell_angle_gamma   70.29643236
_symmetry_Int_Tables_number   1
_chemical_formula_structural   TiAl7N8
_chemical_formula_sum   'Ti2 Al14 N16'
_cell_volume   276.18876535
_cell_formula_units_Z   2
loop_
 _symmetry_equiv_pos_site_id
 _symmetry_equiv_pos_as_xyz
  1  'x, y, z'
loop_
 _atom_site_type_symbol
 _atom_site_label
 _atom_site_symmetry_multiplicity
 _atom_site_fract_x
 _atom_site_fract_y
 _atom_site_fract_z
 _atom_site_occupancy
  Ti  Ti0  1  0.86983685  0.86983685  0.48577500  1
  Ti  Ti1  1  0.75516315  0.75516315  0.01422500  1
  N  N2  1  0.49555221  0.00607298  0.00266395  1
  N  N3  1  0.55735888  0.55735888  0.74288398  1
  N  N4  1  0.37590803  0.87515772  0.50218571  1
  N  N5  1  0.43658769  0.43658769  0.24799613  1
  N  N6  1  0.24909197  0.74984228  0.99781429  1
  N  N7  1  0.06764112  0.06764112  0.75711602  1
  N  N8  1  0.31250000  0.31250000  0.75000000  1
  N  N9  1  0.12944779  0.61892702  0.49733605  1
  N  N10  1  0.94925415  0.94925415  0.25144837  1
  N  N11  1  0.18841231  0.18841231  0.25200387  1
  N  N12  1  0.00607298  0.49555221  0.00266395  1
  N  N13  1  0.81250000  0.81250000  0.75000000  1
  N  N14  1  0.87515772  0.37590803  0.50218571  1
  N  N15  1  0.67574585  0.67574585  0.24855163  1
  N  N16  1  0.74984228  0.24909197  0.99781429  1
  N  N17  1  0.61892702  0.12944779  0.49733605  1
  Al  Al18  1  0.49814842  0.49814842  0.99613040  1
  Al  Al19  1  0.56250616  0.06249384  0.75000000  1
  Al  Al20  1  0.37419003  0.37419003  0.49813437  1
  Al  Al21  1  0.43175196  0.93907397  0.24959170  1
  Al  Al22  1  0.25080997  0.25080997  0.00186563  1
  Al  Al23  1  0.06249384  0.56250616  0.75000000  1
  Al  Al24  1  0.31250000  0.81250000  0.75000000  1
  Al  Al25  1  0.12685158  0.12685158  0.50386960  1
  Al  Al26  1  0.93907397  0.43175196  0.24959170  1
  Al  Al27  1  0.19324804  0.68592603  0.25040830  1
  Al  Al28  1  0.00066613  0.00066613  0.99682448  1
  Al  Al29  1  0.81250000  0.31250000  0.75000000  1
  Al  Al30  1  0.68592603  0.19324804  0.25040830  1
  Al  Al31  1  0.62433387  0.62433387  0.50317552  1
