# generated using pymatgen
data_TiAl3
_symmetry_space_group_name_H-M   'P 1'
_cell_length_a   13.45553078
_cell_length_b   3.10998605
_cell_length_c   9.38715018
_cell_angle_alpha   90.00000000
_cell_angle_beta   90.13136826
_cell_angle_gamma   90.00000000
_symmetry_Int_Tables_number   1
_chemical_formula_structural   TiAl3
_chemical_formula_sum   'Ti6 Al18'
_cell_volume   392.81846989
_cell_formula_units_Z   6
loop_
 _symmetry_equiv_pos_site_id
 _symmetry_equiv_pos_as_xyz
  1  'x, y, z'
loop_
 _atom_site_type_symbol
 _atom_site_label
 _atom_site_symmetry_multiplicity
 _atom_site_fract_x
 _atom_site_fract_y
 _atom_site_fract_z
 _atom_site_occupancy
  Al  Al0  1  0.02388067  0.00000000  0.97815376  1
  Al  Al1  1  0.13030491  0.50000000  0.18593628  1
  Al  Al2  1  0.35530573  0.50000000  0.19447187  1
  Al  Al3  1  0.98802971  0.00000000  0.34234863  1
  Al  Al4  1  0.99821703  0.00000000  0.67142649  1
  Al  Al5  1  0.14206151  0.50000000  0.82005272  1
  Al  Al6  1  0.25004577  0.00000000  0.65221255  1
  Al  Al7  1  0.36739501  0.50000000  0.81997916  1
  Al  Al8  1  0.46609651  0.00000000  0.02098627  1
  Al  Al9  1  0.61833157  0.50000000  0.16301461  1
  Al  Al10  1  0.74942217  0.00000000  -0.00448525  1
  Al  Al11  1  0.89763061  0.50000000  0.12952369  1
  Al  Al12  1  0.50077289  0.00000000  0.33948058  1
  Al  Al13  1  0.77389742  0.00000000  0.30246062  1
  Al  Al14  1  0.86335828  0.50000000  0.51643406  1
  Al  Al15  1  0.52668429  0.00000000  0.63961035  1
  Al  Al16  1  0.59797551  0.50000000  0.86278336  1
  Al  Al17  1  0.73134521  0.00000000  0.68760370  1
  Ti  Ti18  1  0.24771744  0.00000000  0.00536689  1
  Ti  Ti19  1  0.11361331  0.50000000  0.50348097  1
  Ti  Ti20  1  0.24624872  0.00000000  0.36285666  1
  Ti  Ti21  1  0.38505153  0.50000000  0.51241711  1
  Ti  Ti22  1  0.64954493  0.50000000  0.46231667  1
  Ti  Ti23  1  0.87706931  0.50000000  0.83156823  1
