# generated using pymatgen
data_Ti8Al4C3N
_symmetry_space_group_name_H-M   'P 1'
_cell_length_a   3.05481187
_cell_length_b   5.29162209
_cell_length_c   13.65297496
_cell_angle_alpha   89.97801576
_cell_angle_beta   90.00000000
_cell_angle_gamma   90.00000823
_symmetry_Int_Tables_number   1
_chemical_formula_structural   Ti8Al4C3N
_chemical_formula_sum   'Ti8 Al4 C3 N1'
_cell_volume   220.69909475
_cell_formula_units_Z   1
loop_
 _symmetry_equiv_pos_site_id
 _symmetry_equiv_pos_as_xyz
  1  'x, y, z'
loop_
 _atom_site_type_symbol
 _atom_site_label
 _atom_site_symmetry_multiplicity
 _atom_site_fract_x
 _atom_site_fract_y
 _atom_site_fract_z
 _atom_site_occupancy
  Al  Al0  1  0.50000050  0.16718213  0.24867036  1
  Al  Al1  1  0.00000050  0.66577317  0.24927111  1
  Al  Al2  1  0.99999950  0.33422683  0.75072889  1
  Al  Al3  1  0.49999950  0.83281787  0.75132964  1
  C  C4  1  -0.00000000  -0.00000000  0.00000000  1
  C  C5  1  -0.00000000  -0.00000000  0.50000000  1
  C  C6  1  0.50000000  0.50000000  0.50000000  1
  N  N7  1  0.50000000  0.50000000  0.00000000  1
  Ti  Ti8  1  0.50000050  0.16642385  0.58433233  1
  Ti  Ti9  1  0.00000050  0.66652435  0.58406075  1
  Ti  Ti10  1  0.50000050  0.16873348  0.91622331  1
  Ti  Ti11  1  0.00000050  0.66510413  0.91714938  1
  Ti  Ti12  1  0.99999950  0.33489587  0.08285062  1
  Ti  Ti13  1  0.49999950  0.83126652  0.08377669  1
  Ti  Ti14  1  0.99999950  0.33347565  0.41593925  1
  Ti  Ti15  1  0.49999950  0.83357615  0.41566767  1
