# generated using pymatgen
data_Ti8Al4C3N
_symmetry_space_group_name_H-M   'P 1'
_cell_length_a   5.29680052
_cell_length_b   6.10465500
_cell_length_c   13.66437396
_cell_angle_alpha   90.00000000
_cell_angle_beta   89.93918703
_cell_angle_gamma   89.99999859
_symmetry_Int_Tables_number   1
_chemical_formula_structural   Ti8Al4C3N
_chemical_formula_sum   'Ti16 Al8 C6 N2'
_cell_volume   441.83919300
_cell_formula_units_Z   2
loop_
 _symmetry_equiv_pos_site_id
 _symmetry_equiv_pos_as_xyz
  1  'x, y, z'
loop_
 _atom_site_type_symbol
 _atom_site_label
 _atom_site_symmetry_multiplicity
 _atom_site_fract_x
 _atom_site_fract_y
 _atom_site_fract_z
 _atom_site_occupancy
  Al  Al0  1  0.16666070  0.25000000  0.24858591  1
  Al  Al1  1  0.66570615  0.50000000  0.24927323  1
  Al  Al2  1  0.16666070  0.75000000  0.24858591  1
  Al  Al3  1  0.66570615  0.00000000  0.24927323  1
  Al  Al4  1  0.83333930  0.25000000  0.75141409  1
  Al  Al5  1  0.33429385  0.50000000  0.75072677  1
  Al  Al6  1  0.83333930  0.75000000  0.75141409  1
  Al  Al7  1  0.33429385  0.00000000  0.75072677  1
  C  C8  1  -0.00000000  0.00000000  0.00000000  1
  C  C9  1  -0.00000000  0.50000000  0.00000000  1
  C  C10  1  -0.00000000  0.00000000  0.50000000  1
  C  C11  1  0.50000000  0.25000000  0.50000000  1
  C  C12  1  -0.00000000  0.50000000  0.50000000  1
  C  C13  1  0.50000000  0.75000000  0.50000000  1
  N  N14  1  0.50000000  0.25000000  0.00000000  1
  N  N15  1  0.50000000  0.75000000  0.00000000  1
  Ti  Ti16  1  0.16661473  0.25000000  0.58413496  1
  Ti  Ti17  1  0.66670777  0.50000000  0.58395496  1
  Ti  Ti18  1  0.16661473  0.75000000  0.58413496  1
  Ti  Ti19  1  0.66670777  -0.00000000  0.58395496  1
  Ti  Ti20  1  0.16931435  0.25000000  0.91650692  1
  Ti  Ti21  1  0.66539183  0.50000000  0.91727838  1
  Ti  Ti22  1  0.16931435  0.75000000  0.91650692  1
  Ti  Ti23  1  0.66539183  -0.00000000  0.91727838  1
  Ti  Ti24  1  0.83068565  0.25000000  0.08349308  1
  Ti  Ti25  1  0.33460817  0.50000000  0.08272162  1
  Ti  Ti26  1  0.83068565  0.75000000  0.08349308  1
  Ti  Ti27  1  0.33460817  0.00000000  0.08272162  1
  Ti  Ti28  1  0.83338527  0.25000000  0.41586504  1
  Ti  Ti29  1  0.33329223  0.50000000  0.41604504  1
  Ti  Ti30  1  0.83338527  0.75000000  0.41586504  1
  Ti  Ti31  1  0.33329223  -0.00000000  0.41604504  1
