# generated using pymatgen
data_Ti8Al4C3N
_symmetry_space_group_name_H-M   'P 1'
_cell_length_a   5.29109532
_cell_length_b   3.05465344
_cell_length_c   13.65643968
_cell_angle_alpha   90.00000000
_cell_angle_beta   89.98265835
_cell_angle_gamma   90.00000000
_symmetry_Int_Tables_number   1
_chemical_formula_structural   Ti8Al4C3N
_chemical_formula_sum   'Ti8 Al4 C3 N1'
_cell_volume   220.72168431
_cell_formula_units_Z   1
loop_
 _symmetry_equiv_pos_site_id
 _symmetry_equiv_pos_as_xyz
  1  'x, y, z'
loop_
 _atom_site_type_symbol
 _atom_site_label
 _atom_site_symmetry_multiplicity
 _atom_site_fract_x
 _atom_site_fract_y
 _atom_site_fract_z
 _atom_site_occupancy
  Al  Al0  1  0.16722599  0.50000000  0.24866110  1
  Al  Al1  1  0.83277401  0.50000000  0.75133890  1
  Al  Al2  1  0.66579732  -0.00000000  0.24928320  1
  Al  Al3  1  0.33420268  -0.00000000  0.75071680  1
  C  C4  1  -0.00000000  -0.00000000  0.00000000  1
  C  C5  1  -0.00000000  -0.00000000  0.50000000  1
  C  C6  1  0.50000000  0.50000000  0.50000000  1
  N  N7  1  0.50000000  0.50000000  0.00000000  1
  Ti  Ti8  1  0.16654731  0.50000000  0.58438152  1
  Ti  Ti9  1  0.83345269  0.50000000  0.41561848  1
  Ti  Ti10  1  0.66675656  -0.00000000  0.58407895  1
  Ti  Ti11  1  0.33324344  -0.00000000  0.41592105  1
  Ti  Ti12  1  0.16901752  0.50000000  0.91627644  1
  Ti  Ti13  1  0.83098248  0.50000000  0.08372356  1
  Ti  Ti14  1  0.66532882  -0.00000000  0.91710702  1
  Ti  Ti15  1  0.33467118  0.00000000  0.08289298  1
