# generated using pymatgen
data_Ti8Al4C3N
_symmetry_space_group_name_H-M   'P 1'
_cell_length_a   5.29128516
_cell_length_b   3.05469984
_cell_length_c   13.65649258
_cell_angle_alpha   90.00000000
_cell_angle_beta   90.02926523
_cell_angle_gamma   90.00000000
_symmetry_Int_Tables_number   1
_chemical_formula_structural   Ti8Al4C3N
_chemical_formula_sum   'Ti8 Al4 C3 N1'
_cell_volume   220.73379294
_cell_formula_units_Z   1
loop_
 _symmetry_equiv_pos_site_id
 _symmetry_equiv_pos_as_xyz
  1  'x, y, z'
loop_
 _atom_site_type_symbol
 _atom_site_label
 _atom_site_symmetry_multiplicity
 _atom_site_fract_x
 _atom_site_fract_y
 _atom_site_fract_z
 _atom_site_occupancy
  Al  Al0  1  0.83270482  0.50000000  0.24861306  1
  Al  Al1  1  0.16729518  0.50000000  0.75138694  1
  Al  Al2  1  0.33424860  0.00000000  0.24925555  1
  Al  Al3  1  0.66575140  0.00000000  0.75074445  1
  C  C4  1  -0.00000000  0.00000000  0.00000000  1
  C  C5  1  -0.00000000  0.00000000  0.50000000  1
  C  C6  1  0.50000000  0.50000000  0.50000000  1
  N  N7  1  0.50000000  0.50000000  0.00000000  1
  Ti  Ti8  1  0.83338179  0.50000000  0.58440075  1
  Ti  Ti9  1  0.16661821  0.50000000  0.41559925  1
  Ti  Ti10  1  0.33317813  0.00000000  0.58404297  1
  Ti  Ti11  1  0.66682187  -0.00000000  0.41595703  1
  Ti  Ti12  1  0.83079155  0.50000000  0.91626586  1
  Ti  Ti13  1  0.16920845  0.50000000  0.08373414  1
  Ti  Ti14  1  0.33466461  0.00000000  0.91710710  1
  Ti  Ti15  1  0.66533539  -0.00000000  0.08289290  1
