# generated using pymatgen
data_Ti8Al4C3N
_symmetry_space_group_name_H-M   'P 1'
_cell_length_a   13.99802265
_cell_length_b   13.99802265
_cell_length_c   5.29612531
_cell_angle_alpha   89.98239729
_cell_angle_beta   90.01759910
_cell_angle_gamma   154.82205673
_symmetry_Int_Tables_number   1
_chemical_formula_structural   Ti8Al4C3N
_chemical_formula_sum   'Ti16 Al8 C6 N2'
_cell_volume   441.48980725
_cell_formula_units_Z   2
loop_
 _symmetry_equiv_pos_site_id
 _symmetry_equiv_pos_as_xyz
  1  'x, y, z'
loop_
 _atom_site_type_symbol
 _atom_site_label
 _atom_site_symmetry_multiplicity
 _atom_site_fract_x
 _atom_site_fract_y
 _atom_site_fract_z
 _atom_site_occupancy
  Al  Al0  1  0.87463824  0.12536226  0.33424415  1
  Al  Al1  1  0.62429889  0.87570161  0.83321332  1
  Al  Al2  1  0.37463824  0.62536226  0.33424415  1
  Al  Al3  1  0.12429889  0.37570161  0.83321332  1
  Al  Al4  1  0.37570111  0.12429839  0.16678668  1
  Al  Al5  1  0.12536176  0.87463774  0.66575585  1
  Al  Al6  1  0.87570111  0.62429839  0.16678668  1
  Al  Al7  1  0.62536176  0.37463774  0.66575585  1
  C  C8  1  0.25000000  0.25000000  0.50000000  1
  C  C9  1  0.00000000  0.00000000  0.00000000  1
  C  C10  1  0.75000000  0.75000000  0.50000000  1
  C  C11  1  0.50000000  0.50000000  0.00000000  1
  C  C12  1  0.75000000  0.25000000  0.00000000  1
  C  C13  1  0.25000000  0.75000000  0.00000000  1
  N  N14  1  0.00000000  0.50000000  0.50000000  1
  N  N15  1  0.50000000  0.00000000  0.50000000  1
  Ti  Ti16  1  0.70860809  0.29139241  0.33452877  1
  Ti  Ti17  1  0.45822839  0.04177211  0.83119848  1
  Ti  Ti18  1  0.20860809  0.79139241  0.33452877  1
  Ti  Ti19  1  0.95822839  0.54177211  0.83119848  1
  Ti  Ti20  1  0.04195866  0.95804184  0.33309743  1
  Ti  Ti21  1  0.79208632  0.70791418  0.83324676  1
  Ti  Ti22  1  0.54195866  0.45804184  0.33309743  1
  Ti  Ti23  1  0.29208632  0.20791418  0.83324676  1
  Ti  Ti24  1  0.20791368  0.29208582  0.16675324  1
  Ti  Ti25  1  0.95804134  0.04195816  0.66690257  1
  Ti  Ti26  1  0.70791368  0.79208582  0.16675324  1
  Ti  Ti27  1  0.45804134  0.54195816  0.66690257  1
  Ti  Ti28  1  0.54177161  0.95822789  0.16880152  1
  Ti  Ti29  1  0.29139191  0.70860759  0.66547123  1
  Ti  Ti30  1  0.04177161  0.45822789  0.16880152  1
  Ti  Ti31  1  0.79139191  0.20860759  0.66547123  1
