# generated using pymatgen
data_Ti8Al4C3N
_symmetry_space_group_name_H-M   'P 1'
_cell_length_a   14.96736960
_cell_length_b   14.64931059
_cell_length_c   8.08091892
_cell_angle_alpha   76.32539589
_cell_angle_beta   72.00196678
_cell_angle_gamma   31.63971063
_symmetry_Int_Tables_number   1
_chemical_formula_structural   Ti8Al4C3N
_chemical_formula_sum   'Ti32 Al16 C12 N4'
_cell_volume   882.71921013
_cell_formula_units_Z   4
loop_
 _symmetry_equiv_pos_site_id
 _symmetry_equiv_pos_as_xyz
  1  'x, y, z'
loop_
 _atom_site_type_symbol
 _atom_site_label
 _atom_site_symmetry_multiplicity
 _atom_site_fract_x
 _atom_site_fract_y
 _atom_site_fract_z
 _atom_site_occupancy
  Al  Al0  1  0.95832087  0.29229632  0.04004856  1
  Al  Al1  1  0.08195778  0.16873562  0.66626426  1
  Al  Al2  1  0.20782253  0.04294953  0.29273095  1
  Al  Al3  1  0.33537305  0.91505218  0.91793239  1
  Al  Al4  1  0.45888619  0.79140049  0.54216265  1
  Al  Al5  1  0.58477157  0.66551200  0.16603037  1
  Al  Al6  1  0.70845619  0.54180788  0.79172120  1
  Al  Al7  1  0.83380807  0.41689037  0.41396045  1
  Al  Al8  1  0.16665412  0.58280515  0.58419315  1
  Al  Al9  1  0.29177678  0.45795514  0.20862509  1
  Al  Al10  1  0.41567650  0.33399554  0.83484018  1
  Al  Al11  1  0.54069702  0.20940351  0.45755165  1
  Al  Al12  1  0.66549100  0.08411763  0.08245747  1
  Al  Al13  1  0.79262347  0.95659911  0.70771877  1
  Al  Al14  1  0.91630759  0.83283719  0.33425153  1
  Al  Al15  1  0.04132275  0.70766847  0.95954879  1
  C  C16  1  0.12511361  0.87503553  0.62489285  1
  C  C17  1  0.25072808  0.74942983  0.24952135  1
  C  C18  1  0.37548489  0.62467406  0.87524214  1
  C  C19  1  0.50032520  0.49969390  0.49920768  1
  C  C20  1  0.74968685  0.25016657  0.75098948  1
  C  C21  1  0.87438937  0.12542665  0.37468171  1
  C  C22  1  0.99923803  0.00075417  0.00028386  1
  C  C23  1  0.37379462  0.12613733  0.37485741  1
  C  C24  1  0.49992632  0.00007297  0.99994050  1
  C  C25  1  0.62619421  0.87376336  0.62517945  1
  C  C26  1  0.75150368  0.74844506  0.24948526  1
  C  C27  1  0.24857642  0.25148312  0.75052723  1
  N  N28  1  0.62501744  0.37483039  0.12521363  1
  N  N29  1  0.87557793  0.62455526  0.87477613  1
  N  N30  1  0.00002140  0.49996725  0.50001624  1
  N  N31  1  0.12446904  0.37555335  0.12516740  1
  Ti  Ti32  1  0.12366235  0.45932088  0.87690792  1
  Ti  Ti33  1  0.24880664  0.33469405  0.49994153  1
  Ti  Ti34  1  0.37354738  0.20975543  0.12431580  1
  Ti  Ti35  1  0.50004545  0.08409339  0.74901308  1
  Ti  Ti36  1  0.62510335  0.95880427  0.37428333  1
  Ti  Ti37  1  0.75095040  0.83258971  0.99867974  1
  Ti  Ti38  1  0.87644284  0.70637860  0.62546989  1
  Ti  Ti39  1  0.00136264  0.58168832  0.25094244  1
  Ti  Ti40  1  0.79029811  0.12606690  0.20826147  1
  Ti  Ti41  1  0.91656617  0.99921477  0.83345363  1
  Ti  Ti42  1  0.04156787  0.87458225  0.45818530  1
  Ti  Ti43  1  0.16597697  0.74991012  0.08370298  1
  Ti  Ti44  1  0.29173008  0.62444856  0.70862730  1
  Ti  Ti45  1  0.41740206  0.49905580  0.33223394  1
  Ti  Ti46  1  0.54161870  0.37492987  0.96009109  1
  Ti  Ti47  1  0.66615771  0.24948913  0.58446813  1
  Ti  Ti48  1  0.33364867  0.75066324  0.41613956  1
  Ti  Ti49  1  0.45999551  0.62348371  0.04162689  1
  Ti  Ti50  1  0.58408690  0.50014782  0.66582324  1
  Ti  Ti51  1  0.70822247  0.37503470  0.29011727  1
  Ti  Ti52  1  0.83200686  0.25140078  0.91781900  1
  Ti  Ti53  1  0.95803236  0.12580861  0.54143817  1
  Ti  Ti54  1  0.08408178  0.00019402  0.16633435  1
  Ti  Ti55  1  0.20857990  0.87554399  0.79166207  1
  Ti  Ti56  1  0.99861369  0.41847740  0.74914215  1
  Ti  Ti57  1  0.12356142  0.29361585  0.37452789  1
  Ti  Ti58  1  0.24891106  0.16754087  0.00137371  1
  Ti  Ti59  1  0.37473528  0.04123534  0.62576517  1
  Ti  Ti60  1  0.50005561  0.91584620  0.25086427  1
  Ti  Ti61  1  0.62655103  0.79010854  0.87581495  1
  Ti  Ti62  1  0.75123493  0.66514627  0.50007747  1
  Ti  Ti63  1  0.87645124  0.54071571  0.12287647  1
