# generated using pymatgen
data_Ti4Al2CN
_symmetry_space_group_name_H-M   'P 1'
_cell_length_a   5.26463715
_cell_length_b   6.07258352
_cell_length_c   13.62869981
_cell_angle_alpha   90.00000000
_cell_angle_beta   89.97418375
_cell_angle_gamma   90.00000000
_symmetry_Int_Tables_number   1
_chemical_formula_structural   Ti4Al2CN
_chemical_formula_sum   'Ti16 Al8 C4 N4'
_cell_volume   435.70879096
_cell_formula_units_Z   4
loop_
 _symmetry_equiv_pos_site_id
 _symmetry_equiv_pos_as_xyz
  1  'x, y, z'
loop_
 _atom_site_type_symbol
 _atom_site_label
 _atom_site_symmetry_multiplicity
 _atom_site_fract_x
 _atom_site_fract_y
 _atom_site_fract_z
 _atom_site_occupancy
  Al  Al0  1  0.16588177  0.24967001  0.24914395  1
  Al  Al1  1  0.83411823  0.24967001  0.75085605  1
  Al  Al2  1  0.66665086  0.49971970  0.24909382  1
  Al  Al3  1  0.33334914  0.49971970  0.75090618  1
  Al  Al4  1  0.16819254  0.75030008  0.24895468  1
  Al  Al5  1  0.83180746  0.75030008  0.75104532  1
  Al  Al6  1  0.66434008  0.00030722  0.24905819  1
  Al  Al7  1  0.33565992  0.00030722  0.75094181  1
  C  C8  1  0.00000000  0.50007729  0.00000000  1
  C  C9  1  0.00000000  0.00099113  0.50000000  1
  C  C10  1  0.00000000  0.49899266  0.50000000  1
  C  C11  1  0.50000000  0.74987967  0.50000000  1
  N  N12  1  0.00000000  0.99993006  0.00000000  1
  N  N13  1  0.50000000  0.24911446  0.00000000  1
  N  N14  1  0.50000000  0.75089856  0.00000000  1
  N  N15  1  0.50000000  0.25004127  0.50000000  1
  Ti  Ti16  1  0.16920637  0.24995710  0.58435774  1
  Ti  Ti17  1  0.83079363  0.24995710  0.41564226  1
  Ti  Ti18  1  0.66574773  0.49863154  0.58411462  1
  Ti  Ti19  1  0.33425227  0.49863154  0.41588538  1
  Ti  Ti20  1  0.16526669  0.75010316  0.58511924  1
  Ti  Ti21  1  0.83473331  0.75010316  0.41488076  1
  Ti  Ti22  1  0.66566072  0.00132365  0.58392907  1
  Ti  Ti23  1  0.33433928  0.00132365  0.41607093  1
  Ti  Ti24  1  0.16758027  0.24859288  0.91604928  1
  Ti  Ti25  1  0.83241973  0.24859288  0.08395072  1
  Ti  Ti26  1  0.66387730  0.49994203  0.91630315  1
  Ti  Ti27  1  0.33612270  0.49994203  0.08369685  1
  Ti  Ti28  1  0.16764908  0.75146019  0.91591687  1
  Ti  Ti29  1  0.83235092  0.75146019  0.08408313  1
  Ti  Ti30  1  0.66794970  0.00002989  0.91668330  1
  Ti  Ti31  1  0.33205030  0.00002989  0.08331670  1
