# generated using pymatgen
data_Ti8Al4CN3
_symmetry_space_group_name_H-M   'P 1'
_cell_length_a   5.22386326
_cell_length_b   6.02396952
_cell_length_c   13.63814907
_cell_angle_alpha   90.00000000
_cell_angle_beta   90.02939946
_cell_angle_gamma   89.99999886
_symmetry_Int_Tables_number   1
_chemical_formula_structural   Ti8Al4CN3
_chemical_formula_sum   'Ti16 Al8 C2 N6'
_cell_volume   429.17057883
_cell_formula_units_Z   2
loop_
 _symmetry_equiv_pos_site_id
 _symmetry_equiv_pos_as_xyz
  1  'x, y, z'
loop_
 _atom_site_type_symbol
 _atom_site_label
 _atom_site_symmetry_multiplicity
 _atom_site_fract_x
 _atom_site_fract_y
 _atom_site_fract_z
 _atom_site_occupancy
  Al  Al0  1  0.16511825  0.25000000  0.25093459  1
  Al  Al1  1  0.66672724  0.50000000  0.25041312  1
  Al  Al2  1  0.16511825  0.75000000  0.25093459  1
  Al  Al3  1  0.66672724  0.00000000  0.25041312  1
  Al  Al4  1  0.83488175  0.25000000  0.74906541  1
  Al  Al5  1  0.33327276  0.50000000  0.74958688  1
  Al  Al6  1  0.83488175  0.75000000  0.74906541  1
  Al  Al7  1  0.33327276  0.00000000  0.74958688  1
  N  N8  1  0.00000000  -0.00000000  0.00000000  1
  N  N9  1  0.00000000  0.50000000  0.00000000  1
  N  N10  1  0.00000000  -0.00000000  0.50000000  1
  N  N11  1  0.50000000  0.25000000  0.50000000  1
  N  N12  1  0.00000000  0.50000000  0.50000000  1
  N  N13  1  0.50000000  0.75000000  0.50000000  1
  C  C14  1  0.50000000  0.25000000  0.00000000  1
  C  C15  1  0.50000000  0.75000000  0.00000000  1
  Ti  Ti16  1  0.16671597  0.25000000  0.58482462  1
  Ti  Ti17  1  0.66670658  0.50000000  0.58500606  1
  Ti  Ti18  1  0.16671597  0.75000000  0.58482462  1
  Ti  Ti19  1  0.66670658  -0.00000000  0.58500606  1
  Ti  Ti20  1  0.16529600  0.25000000  0.91545809  1
  Ti  Ti21  1  0.66831720  0.50000000  0.91467581  1
  Ti  Ti22  1  0.16529600  0.75000000  0.91545809  1
  Ti  Ti23  1  0.66831720  0.00000000  0.91467581  1
  Ti  Ti24  1  0.83470400  0.25000000  0.08454191  1
  Ti  Ti25  1  0.33168280  0.50000000  0.08532419  1
  Ti  Ti26  1  0.83470400  0.75000000  0.08454191  1
  Ti  Ti27  1  0.33168280  -0.00000000  0.08532419  1
  Ti  Ti28  1  0.83328403  0.25000000  0.41517538  1
  Ti  Ti29  1  0.33329342  0.50000000  0.41499394  1
  Ti  Ti30  1  0.83328403  0.75000000  0.41517538  1
  Ti  Ti31  1  0.33329342  0.00000000  0.41499394  1
