# generated using pymatgen
data_AlZnFeCoNi
_symmetry_space_group_name_H-M   'P 1'
_cell_length_a   5.61124063
_cell_length_b   5.85647386
_cell_length_c   7.37406972
_cell_angle_alpha   90.04932280
_cell_angle_beta   89.80810030
_cell_angle_gamma   88.16612807
_symmetry_Int_Tables_number   1
_chemical_formula_structural   AlZnFeCoNi
_chemical_formula_sum   'Al4 Zn4 Fe4 Co4 Ni4'
_cell_volume   242.20171089
_cell_formula_units_Z   4
loop_
 _symmetry_equiv_pos_site_id
 _symmetry_equiv_pos_as_xyz
  1  'x, y, z'
loop_
 _atom_site_type_symbol
 _atom_site_label
 _atom_site_symmetry_multiplicity
 _atom_site_fract_x
 _atom_site_fract_y
 _atom_site_fract_z
 _atom_site_occupancy
  Al  Al0  1  0.08306039  0.28293412  0.74107996  1
  Al  Al1  1  0.19940164  0.59735238  0.00553079  1
  Al  Al2  1  0.30273763  0.89986471  0.26388142  1
  Al  Al3  1  0.42834595  0.19054637  0.99610132  1
  Co  Co4  1  0.31712330  0.89431091  0.75855530  1
  Co  Co5  1  0.49826758  0.49697259  0.75661527  1
  Co  Co6  1  0.60486016  0.79364282  0.49894116  1
  Co  Co7  1  0.89119020  0.70402272  0.24818999  1
  Zn  Zn8  1  0.98539670  0.00834709  0.00368373  1
  Zn  Zn9  1  0.20327512  0.60264420  0.49941839  1
  Zn  Zn10  1  0.40547307  0.19810204  0.50364448  1
  Zn  Zn11  1  0.89169457  0.71370650  0.74250461  1
  Fe  Fe12  1  0.70739553  0.09720566  0.25903375  1
  Fe  Fe13  1  0.78987073  0.41274211  0.48967143  1
  Fe  Fe14  1  0.59811656  0.78766427  0.00420371  1
  Fe  Fe15  1  0.79436416  0.41938981  0.00151545  1
  Ni  Ni16  1  0.99465004  0.00461883  0.49341154  1
  Ni  Ni17  1  0.10145763  0.29629959  0.24349908  1
  Ni  Ni18  1  0.70075027  0.10038729  0.74295262  1
  Ni  Ni19  1  0.50256878  0.49924599  0.24756600  1
