# generated using pymatgen
data_MnCoNiW
_symmetry_space_group_name_H-M   'P 1'
_cell_length_a   7.33611424
_cell_length_b   7.34448289
_cell_length_c   7.23479447
_cell_angle_alpha   90.20164757
_cell_angle_beta   90.15363865
_cell_angle_gamma   90.43005587
_symmetry_Int_Tables_number   1
_chemical_formula_structural   MnCoNiW
_chemical_formula_sum   'Mn8 Co8 Ni8 W8'
_cell_volume   389.79565266
_cell_formula_units_Z   8
loop_
 _symmetry_equiv_pos_site_id
 _symmetry_equiv_pos_as_xyz
  1  'x, y, z'
loop_
 _atom_site_type_symbol
 _atom_site_label
 _atom_site_symmetry_multiplicity
 _atom_site_fract_x
 _atom_site_fract_y
 _atom_site_fract_z
 _atom_site_occupancy
  Co  Co0  1  0.74565171  0.74627878  0.00569139  1
  Co  Co1  1  0.74426413  0.49693109  0.24079482  1
  Co  Co2  1  0.50922127  0.49079249  0.00032171  1
  Co  Co3  1  0.75059466  0.49664462  0.75793706  1
  Co  Co4  1  0.49966575  0.49856997  0.49407409  1
  Co  Co5  1  0.24978128  0.75060390  0.49035451  1
  Co  Co6  1  0.98876861  0.25138670  0.23930400  1
  Co  Co7  1  0.00615908  0.25022566  0.75440305  1
  Mn  Mn8  1  0.75005543  0.25756610  0.00852660  1
  Mn  Mn9  1  0.50878783  0.72734460  0.25439368  1
  Mn  Mn10  1  0.75324782  0.99885988  0.24473565  1
  Mn  Mn11  1  0.50374981  0.27002229  0.24280195  1
  Mn  Mn12  1  0.24379381  0.25551961  0.00182668  1
  Mn  Mn13  1  0.25954229  0.47956199  0.24783650  1
  Mn  Mn14  1  0.25379695  0.25053289  0.50245857  1
  Mn  Mn15  1  0.24501882  0.00928196  0.74945850  1
  Ni  Ni16  1  0.75017867  0.74695366  0.49569335  1
  Ni  Ni17  1  0.50980701  0.74378471  0.75102185  1
  Ni  Ni18  1  0.99747970  0.49285664  0.00565429  1
  Ni  Ni19  1  0.98762343  0.75385210  0.24456630  1
  Ni  Ni20  1  0.75359185  0.00459414  0.75245569  1
  Ni  Ni21  1  0.50585139  0.25259560  0.75469653  1
  Ni  Ni22  1  0.99043345  0.00946094  0.99841816  1
  Ni  Ni23  1  0.99398194  0.00450986  0.50518080  1
  W  W24  1  0.25292234  0.74493177  0.01574439  1
  W  W25  1  0.74671947  0.25340467  0.50149053  1
  W  W26  1  0.51730311  0.00586929  0.99859724  1
  W  W27  1  0.50140848  0.98949262  0.50765390  1
  W  W28  1  0.22813652  0.01522855  0.25581640  1
  W  W29  1  0.26434285  0.49343994  0.74860452  1
  W  W30  1  0.00055094  0.50175071  0.47505732  1
  W  W31  1  0.98756959  0.75715232  0.75442994  1
