# generated using pymatgen
data_YAlFeCoNi
_symmetry_space_group_name_H-M   'P 1'
_cell_length_a   5.96330106
_cell_length_b   5.68358859
_cell_length_c   9.22746121
_cell_angle_alpha   85.02613084
_cell_angle_beta   92.84090743
_cell_angle_gamma   89.50240749
_symmetry_Int_Tables_number   1
_chemical_formula_structural   YAlFeCoNi
_chemical_formula_sum   'Y4 Al4 Fe4 Co4 Ni4'
_cell_volume   311.15878524
_cell_formula_units_Z   4
loop_
 _symmetry_equiv_pos_site_id
 _symmetry_equiv_pos_as_xyz
  1  'x, y, z'
loop_
 _atom_site_type_symbol
 _atom_site_label
 _atom_site_symmetry_multiplicity
 _atom_site_fract_x
 _atom_site_fract_y
 _atom_site_fract_z
 _atom_site_occupancy
  Al  Al0  1  0.01061086  0.14959614  0.67022783  1
  Al  Al1  1  0.17822964  0.59887499  0.02620505  1
  Al  Al2  1  0.36185862  0.92914694  0.24672374  1
  Al  Al3  1  0.49855095  0.27331000  0.02352698  1
  Co  Co4  1  0.30523503  0.82944698  0.80735991  1
  Co  Co5  1  0.29162838  0.41332596  0.79665562  1
  Co  Co6  1  0.68580334  0.76369262  0.41143399  1
  Co  Co7  1  0.99407441  0.77248474  0.24032628  1
  Y  Y8  1  0.00256658  0.09415068  0.98372781  1
  Y  Y9  1  0.21814448  0.62140447  0.51870847  1
  Y  Y10  1  0.50961999  0.13409305  0.53205208  1
  Y  Y11  1  0.76754173  0.62205924  0.75780559  1
  Fe  Fe12  1  0.73824829  0.10610001  0.23519130  1
  Fe  Fe13  1  0.83532180  0.40778233  0.38221938  1
  Fe  Fe14  1  0.55206708  0.81721685  0.02022631  1
  Fe  Fe15  1  0.80365487  0.51821935  0.11512936  1
  Ni  Ni16  1  0.01360663  0.03139331  0.43605952  1
  Ni  Ni17  1  0.13814805  0.29621099  0.23958520  1
  Ni  Ni18  1  0.62449254  0.11084262  0.80971919  1
  Ni  Ni19  1  0.47059675  0.51064876  0.24711640  1
