# generated using pymatgen
data_AlVFeCoNi
_symmetry_space_group_name_H-M   'P 1'
_cell_length_a   5.50055362
_cell_length_b   5.77153706
_cell_length_c   7.45705296
_cell_angle_alpha   90.40298689
_cell_angle_beta   89.01330594
_cell_angle_gamma   89.00784912
_symmetry_Int_Tables_number   1
_chemical_formula_structural   AlVFeCoNi
_chemical_formula_sum   'Al4 V4 Fe4 Co4 Ni4'
_cell_volume   236.65948880
_cell_formula_units_Z   4
loop_
 _symmetry_equiv_pos_site_id
 _symmetry_equiv_pos_as_xyz
  1  'x, y, z'
loop_
 _atom_site_type_symbol
 _atom_site_label
 _atom_site_symmetry_multiplicity
 _atom_site_fract_x
 _atom_site_fract_y
 _atom_site_fract_z
 _atom_site_occupancy
  Al  Al0  1  0.08142366  0.28297340  0.74149698  1
  Al  Al1  1  0.20121216  0.59722184  0.00422512  1
  Al  Al2  1  0.30750875  0.90231205  0.25043449  1
  Al  Al3  1  0.43438715  0.19311666  0.99564201  1
  Co  Co4  1  0.27946069  0.88568499  0.75979717  1
  Co  Co5  1  0.48344286  0.49611538  0.73948070  1
  Co  Co6  1  0.59522043  0.79400941  0.49732331  1
  Co  Co7  1  0.89838289  0.70130243  0.25579558  1
  V  V8  1  0.96109183  0.01617224  0.01213331  1
  V  V9  1  0.20001375  0.60690382  0.50036201  1
  V  V10  1  0.42459417  0.19707421  0.50155593  1
  V  V11  1  0.86468435  0.70473162  0.74308712  1
  Fe  Fe12  1  0.71352320  0.09937053  0.26588934  1
  Fe  Fe13  1  0.80832448  0.41365164  0.49531055  1
  Fe  Fe14  1  0.61676762  0.79272369  0.99400722  1
  Fe  Fe15  1  0.80959199  0.40972239  0.00142015  1
  Ni  Ni16  1  0.00775413  0.00201132  0.49587334  1
  Ni  Ni17  1  0.11111490  0.30267680  0.25040921  1
  Ni  Ni18  1  0.68930592  0.10005200  0.74111968  1
  Ni  Ni19  1  0.51219506  0.50217357  0.25463676  1
