# generated using pymatgen
data_AlFeCoTcNi
_symmetry_space_group_name_H-M   'P 1'
_cell_length_a   5.78184668
_cell_length_b   5.81068049
_cell_length_c   7.29286530
_cell_angle_alpha   89.91540893
_cell_angle_beta   89.45867848
_cell_angle_gamma   89.65887776
_symmetry_Int_Tables_number   1
_chemical_formula_structural   AlFeCoTcNi
_chemical_formula_sum   'Al4 Fe4 Co4 Tc4 Ni4'
_cell_volume   244.99895999
_cell_formula_units_Z   4
loop_
 _symmetry_equiv_pos_site_id
 _symmetry_equiv_pos_as_xyz
  1  'x, y, z'
loop_
 _atom_site_type_symbol
 _atom_site_label
 _atom_site_symmetry_multiplicity
 _atom_site_fract_x
 _atom_site_fract_y
 _atom_site_fract_z
 _atom_site_occupancy
  Al  Al0  1  0.07302839  0.27616753  0.74337505  1
  Al  Al1  1  0.20791807  0.60165542  0.99757700  1
  Al  Al2  1  0.29815639  0.89867813  0.26413359  1
  Al  Al3  1  0.41920336  0.19347824  0.99414793  1
  Co  Co4  1  0.30545315  0.89852738  0.73892731  1
  Co  Co5  1  0.51426007  0.50248193  0.75247200  1
  Co  Co6  1  0.60419604  0.79458866  0.50153886  1
  Co  Co7  1  0.89119703  0.69633297  0.25257291  1
  Tc  Tc8  1  0.98462416  0.99596316  0.01050382  1
  Tc  Tc9  1  0.20140377  0.58994503  0.51214894  1
  Tc  Tc10  1  0.41013329  0.20964455  0.50856505  1
  Tc  Tc11  1  0.89054848  0.71365749  0.74301745  1
  Fe  Fe12  1  0.70106685  0.09895261  0.25956087  1
  Fe  Fe13  1  0.79178630  0.40511525  0.48576097  1
  Fe  Fe14  1  0.60151598  0.80081632  0.00364782  1
  Fe  Fe15  1  0.80480450  0.40752863  0.00842942  1
  Ni  Ni16  1  0.99526356  0.00696958  0.49078142  1
  Ni  Ni17  1  0.10667181  0.31026629  0.24511243  1
  Ni  Ni18  1  0.69326297  0.09905712  0.74524114  1
  Ni  Ni19  1  0.50550585  0.50017372  0.24248600  1
