# generated using pymatgen
data_TaAlFeCoNi
_symmetry_space_group_name_H-M   'P 1'
_cell_length_a   5.63502824
_cell_length_b   5.88101144
_cell_length_c   7.72987009
_cell_angle_alpha   90.22674355
_cell_angle_beta   89.76101526
_cell_angle_gamma   89.59719995
_symmetry_Int_Tables_number   1
_chemical_formula_structural   TaAlFeCoNi
_chemical_formula_sum   'Ta4 Al4 Fe4 Co4 Ni4'
_cell_volume   256.15471522
_cell_formula_units_Z   4
loop_
 _symmetry_equiv_pos_site_id
 _symmetry_equiv_pos_as_xyz
  1  'x, y, z'
loop_
 _atom_site_type_symbol
 _atom_site_label
 _atom_site_symmetry_multiplicity
 _atom_site_fract_x
 _atom_site_fract_y
 _atom_site_fract_z
 _atom_site_occupancy
  Al  Al0  1  0.07652457  0.28319056  0.74069472  1
  Al  Al1  1  0.20430695  0.58110888  0.00927849  1
  Al  Al2  1  0.32311752  0.89823866  0.23680726  1
  Al  Al3  1  0.45524451  0.19569633  0.00168043  1
  Co  Co4  1  0.27608865  0.89065060  0.76855045  1
  Co  Co5  1  0.46347977  0.49107313  0.75181892  1
  Co  Co6  1  0.61132601  0.78946859  0.47572852  1
  Co  Co7  1  0.90019425  0.70243938  0.24866998  1
  Ta  Ta8  1  0.96740999  0.01944193  0.01625780  1
  Ta  Ta9  1  0.20944415  0.61748130  0.49580073  1
  Ta  Ta10  1  0.42391182  0.17766362  0.50169346  1
  Ta  Ta11  1  0.84637124  0.70254132  0.74535412  1
  Fe  Fe12  1  0.71337180  0.09780923  0.26744051  1
  Fe  Fe13  1  0.80687877  0.41150522  0.49189020  1
  Fe  Fe14  1  0.59716885  0.79109747  0.99990695  1
  Fe  Fe15  1  0.81059049  0.42710617  0.00356342  1
  Ni  Ni16  1  0.99714807  0.00877653  0.49377909  1
  Ni  Ni17  1  0.10669598  0.30339976  0.25276605  1
  Ni  Ni18  1  0.69120091  0.11432091  0.74969446  1
  Ni  Ni19  1  0.51952571  0.49699040  0.24862443  1
