# generated using pymatgen
data_ScAlFeCoNi
_symmetry_space_group_name_H-M   'P 1'
_cell_length_a   5.95962910
_cell_length_b   5.49459513
_cell_length_c   8.60556403
_cell_angle_alpha   89.11362098
_cell_angle_beta   94.99154008
_cell_angle_gamma   93.61260904
_symmetry_Int_Tables_number   1
_chemical_formula_structural   ScAlFeCoNi
_chemical_formula_sum   'Sc4 Al4 Fe4 Co4 Ni4'
_cell_volume   280.15497349
_cell_formula_units_Z   4
loop_
 _symmetry_equiv_pos_site_id
 _symmetry_equiv_pos_as_xyz
  1  'x, y, z'
loop_
 _atom_site_type_symbol
 _atom_site_label
 _atom_site_symmetry_multiplicity
 _atom_site_fract_x
 _atom_site_fract_y
 _atom_site_fract_z
 _atom_site_occupancy
  Al  Al0  1  0.02880953  0.20534602  0.68848699  1
  Al  Al1  1  0.17449238  0.58282395  0.00922099  1
  Al  Al2  1  0.32020952  0.89151082  0.25691056  1
  Al  Al3  1  0.43236831  0.20536627  0.02979112  1
  Co  Co4  1  0.31058969  0.91440774  0.80172017  1
  Co  Co5  1  0.37519885  0.45791952  0.80045507  1
  Co  Co6  1  0.65948941  0.77886313  0.43361698  1
  Co  Co7  1  0.91791974  0.71110023  0.23102379  1
  Sc  Sc8  1  0.98334480  0.03357717  0.99805322  1
  Sc  Sc9  1  0.24315001  0.63994672  0.53621817  1
  Sc  Sc10  1  0.49447898  0.17176212  0.53807361  1
  Sc  Sc11  1  0.77833749  0.67905015  0.72250851  1
  Fe  Fe12  1  0.72610296  0.09481763  0.24141551  1
  Fe  Fe13  1  0.85420082  0.41085865  0.42475540  1
  Fe  Fe14  1  0.56571958  0.78980014  0.01837733  1
  Fe  Fe15  1  0.78148011  0.45875683  0.02709818  1
  Ni  Ni16  1  0.03135378  0.01598501  0.44116597  1
  Ni  Ni17  1  0.13385677  0.31282978  0.24061559  1
  Ni  Ni18  1  0.66780539  0.15490586  0.81404092  1
  Ni  Ni19  1  0.52109188  0.49037227  0.24645194  1
