# generated using pymatgen
data_AlFeCoNiRu
_symmetry_space_group_name_H-M   'P 1'
_cell_length_a   5.75429548
_cell_length_b   5.83061760
_cell_length_c   7.29675142
_cell_angle_alpha   89.30623600
_cell_angle_beta   89.64817519
_cell_angle_gamma   89.38646579
_symmetry_Int_Tables_number   1
_chemical_formula_structural   AlFeCoNiRu
_chemical_formula_sum   'Al4 Fe4 Co4 Ni4 Ru4'
_cell_volume   244.77760683
_cell_formula_units_Z   4
loop_
 _symmetry_equiv_pos_site_id
 _symmetry_equiv_pos_as_xyz
  1  'x, y, z'
loop_
 _atom_site_type_symbol
 _atom_site_label
 _atom_site_symmetry_multiplicity
 _atom_site_fract_x
 _atom_site_fract_y
 _atom_site_fract_z
 _atom_site_occupancy
  Al  Al0  1  0.08075306  0.28098701  0.73925746  1
  Al  Al1  1  0.20235057  0.60764268  0.99968409  1
  Al  Al2  1  0.29305235  0.90212725  0.26968462  1
  Al  Al3  1  0.41381014  0.19351532  0.99416502  1
  Co  Co4  1  0.30788331  0.89169114  0.73752940  1
  Co  Co5  1  0.51102604  0.50203491  0.75534627  1
  Co  Co6  1  0.60815842  0.79351678  0.50332235  1
  Co  Co7  1  0.88165191  0.69572139  0.25229244  1
  Ru  Ru8  1  0.00370708  0.00478336  0.00642856  1
  Ru  Ru9  1  0.20194278  0.59307742  0.50570582  1
  Ru  Ru10  1  0.40934209  0.20592204  0.50456239  1
  Ru  Ru11  1  0.89980283  0.70576385  0.74509776  1
  Fe  Fe12  1  0.70442808  0.09753476  0.25591672  1
  Fe  Fe13  1  0.79030294  0.40656013  0.48932344  1
  Fe  Fe14  1  0.60461168  0.80278025  0.00259374  1
  Fe  Fe15  1  0.80036738  0.40373664  0.00708577  1
  Ni  Ni16  1  0.98831236  0.00409989  0.49450825  1
  Ni  Ni17  1  0.10142706  0.31364698  0.25009186  1
  Ni  Ni18  1  0.69525978  0.09638680  0.74619244  1
  Ni  Ni19  1  0.50181013  0.49847141  0.24121159  1
