# generated using pymatgen
data_AlFeCoNiRh
_symmetry_space_group_name_H-M   'P 1'
_cell_length_a   5.75412582
_cell_length_b   5.79125953
_cell_length_c   7.31456590
_cell_angle_alpha   89.04012905
_cell_angle_beta   89.66770057
_cell_angle_gamma   89.69429934
_symmetry_Int_Tables_number   1
_chemical_formula_structural   AlFeCoNiRh
_chemical_formula_sum   'Al4 Fe4 Co4 Ni4 Rh4'
_cell_volume   243.70628342
_cell_formula_units_Z   4
loop_
 _symmetry_equiv_pos_site_id
 _symmetry_equiv_pos_as_xyz
  1  'x, y, z'
loop_
 _atom_site_type_symbol
 _atom_site_label
 _atom_site_symmetry_multiplicity
 _atom_site_fract_x
 _atom_site_fract_y
 _atom_site_fract_z
 _atom_site_occupancy
  Al  Al0  1  0.08916007  0.28440722  0.73499833  1
  Al  Al1  1  0.20069890  0.60745091  0.00191037  1
  Al  Al2  1  0.29373317  0.90343858  0.26666255  1
  Al  Al3  1  0.41790490  0.19059802  0.99335306  1
  Co  Co4  1  0.31671118  0.88493782  0.74230847  1
  Co  Co5  1  0.50174629  0.50294087  0.75718521  1
  Co  Co6  1  0.61015319  0.79447393  0.50165103  1
  Co  Co7  1  0.87727096  0.70052928  0.25529399  1
  Rh  Rh8  1  0.00893809  0.00820643  0.00551811  1
  Rh  Rh9  1  0.20239357  0.60112559  0.49890416  1
  Rh  Rh10  1  0.40966801  0.19402532  0.49726198  1
  Rh  Rh11  1  0.89863286  0.69528334  0.75418919  1
  Fe  Fe12  1  0.71302474  0.10078142  0.24663559  1
  Fe  Fe13  1  0.78506664  0.40830307  0.49045516  1
  Fe  Fe14  1  0.60639334  0.79492685  0.00243152  1
  Fe  Fe15  1  0.79163281  0.41114710  0.01208166  1
  Ni  Ni16  1  0.98395159  0.00187368  0.49736813  1
  Ni  Ni17  1  0.09852289  0.31344016  0.25020414  1
  Ni  Ni18  1  0.69753348  0.09943390  0.74918391  1
  Ni  Ni19  1  0.49686333  0.50267651  0.24240346  1
