# generated using pymatgen
data_AlFeCoReNi
_symmetry_space_group_name_H-M   'P 1'
_cell_length_a   5.77685836
_cell_length_b   5.80776992
_cell_length_c   7.34699617
_cell_angle_alpha   89.91743998
_cell_angle_beta   89.44687114
_cell_angle_gamma   89.75335254
_symmetry_Int_Tables_number   1
_chemical_formula_structural   AlFeCoReNi
_chemical_formula_sum   'Al4 Fe4 Co4 Re4 Ni4'
_cell_volume   246.48259013
_cell_formula_units_Z   4
loop_
 _symmetry_equiv_pos_site_id
 _symmetry_equiv_pos_as_xyz
  1  'x, y, z'
loop_
 _atom_site_type_symbol
 _atom_site_label
 _atom_site_symmetry_multiplicity
 _atom_site_fract_x
 _atom_site_fract_y
 _atom_site_fract_z
 _atom_site_occupancy
  Al  Al0  1  0.07315445  0.27745190  0.74363563  1
  Al  Al1  1  0.20882042  0.59941233  0.99925369  1
  Al  Al2  1  0.30001818  0.89919095  0.25965358  1
  Al  Al3  1  0.42368830  0.19419823  0.99412919  1
  Co  Co4  1  0.30131135  0.89943795  0.74004686  1
  Co  Co5  1  0.50990849  0.50217033  0.75002108  1
  Co  Co6  1  0.59998644  0.79687430  0.50165068  1
  Co  Co7  1  0.89467908  0.69819174  0.25345365  1
  Re  Re8  1  0.98264359  0.99647802  0.01080653  1
  Re  Re9  1  0.20117789  0.59210051  0.51007026  1
  Re  Re10  1  0.41195646  0.20615502  0.50738440  1
  Re  Re11  1  0.88480411  0.71321891  0.74393411  1
  Fe  Fe12  1  0.70239937  0.09792680  0.26094505  1
  Fe  Fe13  1  0.79209390  0.40485406  0.48672750  1
  Fe  Fe14  1  0.60104016  0.79861993  0.00457474  1
  Fe  Fe15  1  0.80809407  0.40931058  0.00740975  1
  Ni  Ni16  1  0.99801822  0.00645397  0.49196764  1
  Ni  Ni17  1  0.10614914  0.30864109  0.24582478  1
  Ni  Ni18  1  0.69242546  0.09928109  0.74496157  1
  Ni  Ni19  1  0.50763091  0.50003231  0.24354932  1
