# generated using pymatgen
data_HfAlFeCoNi
_symmetry_space_group_name_H-M   'P 1'
_cell_length_a   5.93857432
_cell_length_b   5.45531076
_cell_length_c   8.59370133
_cell_angle_alpha   89.06399992
_cell_angle_beta   95.01766922
_cell_angle_gamma   94.58702202
_symmetry_Int_Tables_number   1
_chemical_formula_structural   HfAlFeCoNi
_chemical_formula_sum   'Hf4 Al4 Fe4 Co4 Ni4'
_cell_volume   276.44067768
_cell_formula_units_Z   4
loop_
 _symmetry_equiv_pos_site_id
 _symmetry_equiv_pos_as_xyz
  1  'x, y, z'
loop_
 _atom_site_type_symbol
 _atom_site_label
 _atom_site_symmetry_multiplicity
 _atom_site_fract_x
 _atom_site_fract_y
 _atom_site_fract_z
 _atom_site_occupancy
  Al  Al0  1  0.01649590  0.21159793  0.68840754  1
  Al  Al1  1  0.17689444  0.57931991  0.00099076  1
  Al  Al2  1  0.32334221  0.88951413  0.25238305  1
  Al  Al3  1  0.43801153  0.20952647  0.03188880  1
  Co  Co4  1  0.29548177  0.91411810  0.78953884  1
  Co  Co5  1  0.37554205  0.44427547  0.79328573  1
  Co  Co6  1  0.65519096  0.78401361  0.43665074  1
  Co  Co7  1  0.91756681  0.71572345  0.23484381  1
  Hf  Hf8  1  0.98330459  0.02973791  0.00126992  1
  Hf  Hf9  1  0.24704365  0.63515500  0.53389961  1
  Hf  Hf10  1  0.49947691  0.16573972  0.53761557  1
  Hf  Hf11  1  0.76807829  0.67577186  0.72089304  1
  Fe  Fe12  1  0.73400081  0.10281394  0.24601512  1
  Fe  Fe13  1  0.85148622  0.41419630  0.43390529  1
  Fe  Fe14  1  0.56500752  0.79153455  0.01599952  1
  Fe  Fe15  1  0.78704268  0.46387445  0.02492072  1
  Ni  Ni16  1  0.04209221  0.01775059  0.44699748  1
  Ni  Ni17  1  0.13380488  0.31841008  0.24388483  1
  Ni  Ni18  1  0.66522800  0.14746092  0.81698798  1
  Ni  Ni19  1  0.52490859  0.48946560  0.24962164  1
