# generated using pymatgen
data_AlCrFeCoNi
_symmetry_space_group_name_H-M   'P 1'
_cell_length_a   5.57009193
_cell_length_b   5.74647975
_cell_length_c   7.30348258
_cell_angle_alpha   90.18629361
_cell_angle_beta   88.99203726
_cell_angle_gamma   88.61188245
_symmetry_Int_Tables_number   1
_chemical_formula_structural   AlCrFeCoNi
_chemical_formula_sum   'Al4 Cr4 Fe4 Co4 Ni4'
_cell_volume   233.66659216
_cell_formula_units_Z   4
loop_
 _symmetry_equiv_pos_site_id
 _symmetry_equiv_pos_as_xyz
  1  'x, y, z'
loop_
 _atom_site_type_symbol
 _atom_site_label
 _atom_site_symmetry_multiplicity
 _atom_site_fract_x
 _atom_site_fract_y
 _atom_site_fract_z
 _atom_site_occupancy
  Al  Al0  1  0.08281013  0.28305202  0.73922273  1
  Al  Al1  1  0.20084181  0.60645329  0.99840761  1
  Al  Al2  1  0.29583497  0.89892641  0.26099246  1
  Al  Al3  1  0.42528858  0.19340855  0.99829078  1
  Co  Co4  1  0.29547549  0.89306016  0.75078562  1
  Co  Co5  1  0.50410049  0.50130751  0.74764955  1
  Co  Co6  1  0.59814874  0.79929234  0.50279720  1
  Co  Co7  1  0.89806098  0.69804788  0.25332056  1
  Cr  Cr8  1  0.96985141  0.00976507  0.00447286  1
  Cr  Cr9  1  0.20273879  0.59678052  0.51430265  1
  Cr  Cr10  1  0.41709705  0.20868803  0.50181505  1
  Cr  Cr11  1  0.88257090  0.70623282  0.73488647  1
  Fe  Fe12  1  0.70900602  0.09320053  0.26270409  1
  Fe  Fe13  1  0.78756311  0.40673575  0.49061471  1
  Fe  Fe14  1  0.61895420  0.79511079  0.99704932  1
  Fe  Fe15  1  0.80981992  0.40782684  0.00446596  1
  Ni  Ni16  1  0.00014891  0.99938913  0.49907249  1
  Ni  Ni17  1  0.10570976  0.30301555  0.24944038  1
  Ni  Ni18  1  0.69001886  0.09736535  0.74284424  1
  Ni  Ni19  1  0.50595986  0.50234145  0.24686529  1
