# generated using pymatgen
data_AlCdFeCoNi
_symmetry_space_group_name_H-M   'P 1'
_cell_length_a   5.91470428
_cell_length_b   5.95498418
_cell_length_c   7.80227103
_cell_angle_alpha   91.12681469
_cell_angle_beta   90.48258838
_cell_angle_gamma   89.13782658
_symmetry_Int_Tables_number   1
_chemical_formula_structural   AlCdFeCoNi
_chemical_formula_sum   'Al4 Cd4 Fe4 Co4 Ni4'
_cell_volume   274.71803095
_cell_formula_units_Z   4
loop_
 _symmetry_equiv_pos_site_id
 _symmetry_equiv_pos_as_xyz
  1  'x, y, z'
loop_
 _atom_site_type_symbol
 _atom_site_label
 _atom_site_symmetry_multiplicity
 _atom_site_fract_x
 _atom_site_fract_y
 _atom_site_fract_z
 _atom_site_occupancy
  Al  Al0  1  0.09159698  0.28211480  0.74552734  1
  Al  Al1  1  0.19774173  0.57433222  0.01842227  1
  Al  Al2  1  0.28829230  0.90393749  0.25637667  1
  Al  Al3  1  0.44373344  0.18902862  0.00122793  1
  Co  Co4  1  0.37017676  0.89180892  0.78253497  1
  Co  Co5  1  0.45397965  0.48499170  0.79218181  1
  Co  Co6  1  0.62112430  0.80164075  0.44282589  1
  Co  Co7  1  0.89642141  0.68207548  0.24280130  1
  Cd  Cd8  1  0.99072372  0.99462601  0.99492052  1
  Cd  Cd9  1  0.21300986  0.62725445  0.51292640  1
  Cd  Cd10  1  0.40862838  0.19390940  0.50858471  1
  Cd  Cd11  1  0.82750128  0.71178487  0.73117749  1
  Fe  Fe12  1  0.70859145  0.09810036  0.24960804  1
  Fe  Fe13  1  0.80783432  0.39981602  0.46273699  1
  Fe  Fe14  1  0.57981007  0.78568371  0.03097903  1
  Fe  Fe15  1  0.79532036  0.42112421  0.01387681  1
  Ni  Ni16  1  0.98086045  0.02050385  0.48358038  1
  Ni  Ni17  1  0.10199764  0.29488464  0.24440826  1
  Ni  Ni18  1  0.71613595  0.15346953  0.74341175  1
  Ni  Ni19  1  0.50651996  0.48891295  0.24189145  1
