# generated using pymatgen
data_AlFeCoNi
_symmetry_space_group_name_H-M   'P 1'
_cell_length_a   5.12772206
_cell_length_b   5.01347923
_cell_length_c   7.13649552
_cell_angle_alpha   91.84006668
_cell_angle_beta   89.68088189
_cell_angle_gamma   90.27573519
_symmetry_Int_Tables_number   1
_chemical_formula_structural   AlFeCoNi
_chemical_formula_sum   'Al4 Fe4 Co4 Ni4'
_cell_volume   183.36366852
_cell_formula_units_Z   4
loop_
 _symmetry_equiv_pos_site_id
 _symmetry_equiv_pos_as_xyz
  1  'x, y, z'
loop_
 _atom_site_type_symbol
 _atom_site_label
 _atom_site_symmetry_multiplicity
 _atom_site_fract_x
 _atom_site_fract_y
 _atom_site_fract_z
 _atom_site_occupancy
  Al  Al0  1  0.26144094  0.77894655  0.73855719  1
  Al  Al1  1  0.73565756  0.22887462  0.25970559  1
  Al  Al2  1  0.50083654  0.49890927  0.00055964  1
  Al  Al3  1  0.00170530  0.48755089  0.00045833  1
  Co  Co4  1  0.49791798  0.50626996  0.49605665  1
  Co  Co5  1  0.23687720  0.24373798  0.25376401  1
  Co  Co6  1  0.24734332  0.75035513  0.25801034  1
  Co  Co7  1  -0.00310814  0.98364300  0.00190299  1
  Fe  Fe8  1  0.76505435  0.75833830  0.73866787  1
  Fe  Fe9  1  0.75333565  0.73467651  0.26155115  1
  Fe  Fe10  1  0.00240385  0.00534606  0.49153964  1
  Fe  Fe11  1  0.00251339  0.50350730  0.50398882  1
  Ni  Ni12  1  0.75175300  0.25184581  0.74574232  1
  Ni  Ni13  1  0.25141044  0.26891457  0.75095535  1
  Ni  Ni14  1  0.49702055  0.00441650  0.49708246  1
  Ni  Ni15  1  0.49783806  0.99466756  0.00145765  1
