# generated using pymatgen
data_AlFeCoCuNi
_symmetry_space_group_name_H-M   'P 1'
_cell_length_a   5.66003969
_cell_length_b   5.77551681
_cell_length_c   7.23531046
_cell_angle_alpha   89.78548867
_cell_angle_beta   89.69958595
_cell_angle_gamma   88.75742955
_symmetry_Int_Tables_number   1
_chemical_formula_structural   AlFeCoCuNi
_chemical_formula_sum   'Al4 Fe4 Co4 Cu4 Ni4'
_cell_volume   236.45937074
_cell_formula_units_Z   4
loop_
 _symmetry_equiv_pos_site_id
 _symmetry_equiv_pos_as_xyz
  1  'x, y, z'
loop_
 _atom_site_type_symbol
 _atom_site_label
 _atom_site_symmetry_multiplicity
 _atom_site_fract_x
 _atom_site_fract_y
 _atom_site_fract_z
 _atom_site_occupancy
  Al  Al0  1  0.08975163  0.28521547  0.73544004  1
  Al  Al1  1  0.19533965  0.60822470  0.00107118  1
  Al  Al2  1  0.29485347  0.89995336  0.27396068  1
  Al  Al3  1  0.41498807  0.19426185  0.99824327  1
  Co  Co4  1  0.32099063  0.89092726  0.74508819  1
  Co  Co5  1  0.50371890  0.50130364  0.75699604  1
  Co  Co6  1  0.60724514  0.80088966  0.50541948  1
  Co  Co7  1  0.88758554  0.69819170  0.24996397  1
  Cu  Cu8  1  0.00201035  0.00448799  0.99803644  1
  Cu  Cu9  1  0.20025798  0.59530811  0.50156576  1
  Cu  Cu10  1  0.40338005  0.20324295  0.50113637  1
  Cu  Cu11  1  0.90347607  0.70389094  0.74723533  1
  Fe  Fe12  1  0.70923699  0.08998634  0.25253012  1
  Fe  Fe13  1  0.78566367  0.41150805  0.48904206  1
  Fe  Fe14  1  0.60263042  0.79941114  0.99906301  1
  Fe  Fe15  1  0.79550199  0.40885861  0.00559164  1
  Ni  Ni16  1  0.98985096  0.99853250  0.49963874  1
  Ni  Ni17  1  0.09697142  0.29933672  0.24827188  1
  Ni  Ni18  1  0.69927093  0.10460991  0.74540951  1
  Ni  Ni19  1  0.49727615  0.50185907  0.24629628  1
