# generated using pymatgen
data_AlFeCoNiPd
_symmetry_space_group_name_H-M   'P 1'
_cell_length_a   5.76673740
_cell_length_b   5.72994975
_cell_length_c   7.38618263
_cell_angle_alpha   89.44220662
_cell_angle_beta   90.03250202
_cell_angle_gamma   89.88488179
_symmetry_Int_Tables_number   1
_chemical_formula_structural   AlFeCoNiPd
_chemical_formula_sum   'Al4 Fe4 Co4 Ni4 Pd4'
_cell_volume   244.05038541
_cell_formula_units_Z   4
loop_
 _symmetry_equiv_pos_site_id
 _symmetry_equiv_pos_as_xyz
  1  'x, y, z'
loop_
 _atom_site_type_symbol
 _atom_site_label
 _atom_site_symmetry_multiplicity
 _atom_site_fract_x
 _atom_site_fract_y
 _atom_site_fract_z
 _atom_site_occupancy
  Al  Al0  1  0.08350737  0.28443344  0.72999495  1
  Al  Al1  1  0.19189087  0.60088350  0.00437522  1
  Al  Al2  1  0.30336728  0.90593376  0.26406897  1
  Al  Al3  1  0.42949679  0.18981130  0.99285893  1
  Co  Co4  1  0.33311621  0.88372749  0.75221724  1
  Co  Co5  1  0.50340515  0.50118750  0.76530194  1
  Co  Co6  1  0.61400378  0.78745955  0.50107146  1
  Co  Co7  1  0.87076274  0.70564814  0.24856498  1
  Pd  Pd8  1  0.01759631  0.01657266  0.00526509  1
  Pd  Pd9  1  0.20141924  0.61002818  0.49516438  1
  Pd  Pd10  1  0.40427997  0.18895848  0.50272453  1
  Pd  Pd11  1  0.89937334  0.69444693  0.75474991  1
  Fe  Fe12  1  0.71750716  0.10243080  0.24668712  1
  Fe  Fe13  1  0.78491929  0.40441999  0.47937015  1
  Fe  Fe14  1  0.59754372  0.78145745  0.00714423  1
  Fe  Fe15  1  0.78561228  0.41736863  0.01842895  1
  Ni  Ni16  1  0.97681009  0.00800202  0.48860491  1
  Ni  Ni17  1  0.08984353  0.31419296  0.25224692  1
  Ni  Ni18  1  0.69955728  0.10558302  0.74809701  1
  Ni  Ni19  1  0.49598759  0.49745425  0.24306313  1
