# generated using pymatgen
data_AlV2N
_symmetry_space_group_name_H-M   'P 1'
_cell_length_a   2.82311884
_cell_length_b   2.82311883
_cell_length_c   13.00600791
_cell_angle_alpha   90.00000000
_cell_angle_beta   90.00000000
_cell_angle_gamma   119.98589093
_symmetry_Int_Tables_number   1
_chemical_formula_structural   AlV2N
_chemical_formula_sum   'Al2 V4 N2'
_cell_volume   89.78311979
_cell_formula_units_Z   2
loop_
 _symmetry_equiv_pos_site_id
 _symmetry_equiv_pos_as_xyz
  1  'x, y, z'
loop_
 _atom_site_type_symbol
 _atom_site_label
 _atom_site_symmetry_multiplicity
 _atom_site_fract_x
 _atom_site_fract_y
 _atom_site_fract_z
 _atom_site_occupancy
  Al  Al0  1  0.33214072  0.66785928  0.25000000  1
  Al  Al1  1  0.66661415  0.33338585  0.75000000  1
  V  V2  1  0.33309385  0.66690615  0.91273231  1
  V  V3  1  0.66620572  0.33379428  0.41273107  1
  V  V4  1  0.66620572  0.33379428  0.08726893  1
  V  V5  1  0.33309385  0.66690615  0.58726769  1
  N  N6  1  0.99965635  0.00034365  0.00000206  1
  N  N7  1  0.99965635  0.00034365  0.49999794  1
