# generated using pymatgen
data_AlV2N
_symmetry_space_group_name_H-M   'P 1'
_cell_length_a   2.90724684
_cell_length_b   2.90724684
_cell_length_c   13.30013407
_cell_angle_alpha   90.00000000
_cell_angle_beta   90.00000000
_cell_angle_gamma   119.99044262
_symmetry_Int_Tables_number   1
_chemical_formula_structural   AlV2N
_chemical_formula_sum   'Al2 V4 N2'
_cell_volume   97.36262676
_cell_formula_units_Z   2
loop_
 _symmetry_equiv_pos_site_id
 _symmetry_equiv_pos_as_xyz
  1  'x, y, z'
loop_
 _atom_site_type_symbol
 _atom_site_label
 _atom_site_symmetry_multiplicity
 _atom_site_fract_x
 _atom_site_fract_y
 _atom_site_fract_z
 _atom_site_occupancy
  Al  Al0  1  0.33198533  0.66801467  0.25000000  1
  Al  Al1  1  0.66663841  0.33336159  0.75000000  1
  V  V2  1  0.33312729  0.66687271  0.91575728  1
  V  V3  1  0.66621909  0.33378091  0.41574942  1
  V  V4  1  0.66621909  0.33378091  0.08425058  1
  V  V5  1  0.33312729  0.66687271  0.58424272  1
  N  N6  1  0.99967510  0.00032490  0.00000329  1
  N  N7  1  0.99967510  0.00032490  0.49999671  1
