# generated using pymatgen
data_AlV2N
_symmetry_space_group_name_H-M   'P 1'
_cell_length_a   2.94839187
_cell_length_b   2.94839187
_cell_length_c   13.43617475
_cell_angle_alpha   90.00000000
_cell_angle_beta   90.00000000
_cell_angle_gamma   119.99329374
_symmetry_Int_Tables_number   1
_chemical_formula_structural   AlV2N
_chemical_formula_sum   'Al2 V4 N2'
_cell_volume   101.15934980
_cell_formula_units_Z   2
loop_
 _symmetry_equiv_pos_site_id
 _symmetry_equiv_pos_as_xyz
  1  'x, y, z'
loop_
 _atom_site_type_symbol
 _atom_site_label
 _atom_site_symmetry_multiplicity
 _atom_site_fract_x
 _atom_site_fract_y
 _atom_site_fract_z
 _atom_site_occupancy
  Al  Al0  1  0.33207255  0.66792745  0.25000336  1
  Al  Al1  1  0.66661855  0.33338145  0.75000227  1
  V  V2  1  0.33309603  0.66690397  0.91746281  1
  V  V3  1  0.66622857  0.33377143  0.41745850  1
  V  V4  1  0.66622851  0.33377149  0.08253098  1
  V  V5  1  0.33309623  0.66690377  0.58254412  1
  N  N6  1  0.99966317  0.00033683  0.99999716  1
  N  N7  1  0.99966308  0.00033692  0.50000080  1
