# generated using pymatgen
data_AlV2N
_symmetry_space_group_name_H-M   'P 1'
_cell_length_a   2.88740370
_cell_length_b   2.88740370
_cell_length_c   13.24518699
_cell_angle_alpha   90.00000000
_cell_angle_beta   90.00000000
_cell_angle_gamma   119.98888844
_symmetry_Int_Tables_number   1
_chemical_formula_structural   AlV2N
_chemical_formula_sum   'Al2 V4 N2'
_cell_volume   95.64281695
_cell_formula_units_Z   2
loop_
 _symmetry_equiv_pos_site_id
 _symmetry_equiv_pos_as_xyz
  1  'x, y, z'
loop_
 _atom_site_type_symbol
 _atom_site_label
 _atom_site_symmetry_multiplicity
 _atom_site_fract_x
 _atom_site_fract_y
 _atom_site_fract_z
 _atom_site_occupancy
  Al  Al0  1  0.33184488  0.66815512  0.25000000  1
  Al  Al1  1  0.66666166  0.33333834  0.75000000  1
  V  V2  1  0.33316946  0.66683054  0.91502622  1
  V  V3  1  0.66621383  0.33378617  0.41502664  1
  V  V4  1  0.66621383  0.33378617  0.08497336  1
  V  V5  1  0.33316946  0.66683054  0.58497378  1
  N  N6  1  0.99969678  0.00030322  0.00000169  1
  N  N7  1  0.99969678  0.00030322  0.49999831  1
