# generated using pymatgen
data_AlV2N
_symmetry_space_group_name_H-M   'P 1'
_cell_length_a   2.97097904
_cell_length_b   2.97097904
_cell_length_c   13.46645758
_cell_angle_alpha   90.00000000
_cell_angle_beta   90.00000000
_cell_angle_gamma   119.99546087
_symmetry_Int_Tables_number   1
_chemical_formula_structural   AlV2N
_chemical_formula_sum   'Al2 V4 N2'
_cell_volume   102.94447367
_cell_formula_units_Z   2
loop_
 _symmetry_equiv_pos_site_id
 _symmetry_equiv_pos_as_xyz
  1  'x, y, z'
loop_
 _atom_site_type_symbol
 _atom_site_label
 _atom_site_symmetry_multiplicity
 _atom_site_fract_x
 _atom_site_fract_y
 _atom_site_fract_z
 _atom_site_occupancy
  Al  Al0  1  0.33204464  0.66795536  0.25000000  1
  Al  Al1  1  0.66662566  0.33337434  0.75000000  1
  V  V2  1  0.33309984  0.66690016  0.91820792  1
  V  V3  1  0.66623574  0.33376426  0.41819673  1
  V  V4  1  0.66623574  0.33376426  0.08180327  1
  V  V5  1  0.33309984  0.66690016  0.58179208  1
  N  N6  1  0.99966262  0.00033738  0.00000388  1
  N  N7  1  0.99966262  0.00033738  0.49999612  1
