# generated using pymatgen
data_AlV2N
_symmetry_space_group_name_H-M   'P 1'
_cell_length_a   2.86681512
_cell_length_b   2.86681512
_cell_length_c   13.15993370
_cell_angle_alpha   90.00000000
_cell_angle_beta   90.00000000
_cell_angle_gamma   120.00451456
_symmetry_Int_Tables_number   1
_chemical_formula_structural   AlV2N
_chemical_formula_sum   'Al2 V4 N2'
_cell_volume   93.66211211
_cell_formula_units_Z   2
loop_
 _symmetry_equiv_pos_site_id
 _symmetry_equiv_pos_as_xyz
  1  'x, y, z'
loop_
 _atom_site_type_symbol
 _atom_site_label
 _atom_site_symmetry_multiplicity
 _atom_site_fract_x
 _atom_site_fract_y
 _atom_site_fract_z
 _atom_site_occupancy
  Al  Al0  1  0.33185476  0.66814524  0.25000000  1
  Al  Al1  1  0.66666042  0.33333958  0.75000000  1
  V  V2  1  0.33316341  0.66683659  0.91423148  1
  V  V3  1  0.66621538  0.33378462  0.41423999  1
  V  V4  1  0.66621538  0.33378462  0.08576001  1
  V  V5  1  0.33316341  0.66683659  0.58576852  1
  N  N6  1  0.99969696  0.00030304  0.99999669  1
  N  N7  1  0.99969696  0.00030304  0.50000331  1
