# generated using pymatgen
data_AlV2N
_symmetry_space_group_name_H-M   'P 1'
_cell_length_a   2.92941641
_cell_length_b   2.92941641
_cell_length_c   13.37314545
_cell_angle_alpha   90.00000000
_cell_angle_beta   90.00000000
_cell_angle_gamma   119.99130613
_symmetry_Int_Tables_number   1
_chemical_formula_structural   AlV2N
_chemical_formula_sum   'Al2 V4 N2'
_cell_volume   99.39498208
_cell_formula_units_Z   2
loop_
 _symmetry_equiv_pos_site_id
 _symmetry_equiv_pos_as_xyz
  1  'x, y, z'
loop_
 _atom_site_type_symbol
 _atom_site_label
 _atom_site_symmetry_multiplicity
 _atom_site_fract_x
 _atom_site_fract_y
 _atom_site_fract_z
 _atom_site_occupancy
  Al  Al0  1  0.33197953  0.66802047  0.25000000  1
  Al  Al1  1  0.66663939  0.33336061  0.75000000  1
  V  V2  1  0.33312865  0.66687135  0.91658606  1
  V  V3  1  0.66622010  0.33377990  0.41659317  1
  V  V4  1  0.66622010  0.33377990  0.08340683  1
  V  V5  1  0.33312865  0.66687135  0.58341394  1
  N  N6  1  0.99967513  0.00032487  0.99999654  1
  N  N7  1  0.99967513  0.00032487  0.50000346  1
