# generated using pymatgen
data_AlV2O
_symmetry_space_group_name_H-M   'P 1'
_cell_length_a   2.76135302
_cell_length_b   2.76135302
_cell_length_c   14.30046462
_cell_angle_alpha   90.00000000
_cell_angle_beta   90.00000000
_cell_angle_gamma   119.95502681
_symmetry_Int_Tables_number   1
_chemical_formula_structural   AlV2O
_chemical_formula_sum   'Al2 V4 O2'
_cell_volume   94.47595221
_cell_formula_units_Z   2
loop_
 _symmetry_equiv_pos_site_id
 _symmetry_equiv_pos_as_xyz
  1  'x, y, z'
loop_
 _atom_site_type_symbol
 _atom_site_label
 _atom_site_symmetry_multiplicity
 _atom_site_fract_x
 _atom_site_fract_y
 _atom_site_fract_z
 _atom_site_occupancy
  Al  Al0  1  0.33218160  0.66781840  0.25000000  1
  Al  Al1  1  0.66670551  0.33329449  0.75000000  1
  V  V2  1  0.33322551  0.66677449  0.90339408  1
  V  V3  1  0.66599133  0.33400867  0.40339199  1
  V  V4  1  0.66599133  0.33400867  0.09660801  1
  V  V5  1  0.33322551  0.66677449  0.59660592  1
  O  O6  1  0.99967296  0.00032704  0.99999979  1
  O  O7  1  0.99967296  0.00032704  0.50000021  1
