# generated using pymatgen
data_AlV2O
_symmetry_space_group_name_H-M   'P 1'
_cell_length_a   2.70014022
_cell_length_b   2.70014023
_cell_length_c   14.03917144
_cell_angle_alpha   90.00000000
_cell_angle_beta   90.00000000
_cell_angle_gamma   119.94993706
_symmetry_Int_Tables_number   1
_chemical_formula_structural   AlV2O
_chemical_formula_sum   'Al2 V4 O2'
_cell_volume   88.68774505
_cell_formula_units_Z   2
loop_
 _symmetry_equiv_pos_site_id
 _symmetry_equiv_pos_as_xyz
  1  'x, y, z'
loop_
 _atom_site_type_symbol
 _atom_site_label
 _atom_site_symmetry_multiplicity
 _atom_site_fract_x
 _atom_site_fract_y
 _atom_site_fract_z
 _atom_site_occupancy
  Al  Al0  1  0.33218806  0.66781194  0.25000000  1
  Al  Al1  1  0.66671592  0.33328408  0.75000000  1
  V  V2  1  0.33322562  0.66677438  0.90241712  1
  V  V3  1  0.66599456  0.33400544  0.40241666  1
  V  V4  1  0.66599456  0.33400544  0.09758334  1
  V  V5  1  0.33322562  0.66677438  0.59758288  1
  O  O6  1  0.99966118  0.00033882  0.00000033  1
  O  O7  1  0.99966118  0.00033882  0.49999967  1
