# generated using pymatgen
data_AlV2O
_symmetry_space_group_name_H-M   'P 1'
_cell_length_a   2.72043634
_cell_length_b   2.72043633
_cell_length_c   14.12731539
_cell_angle_alpha   90.00000000
_cell_angle_beta   90.00000000
_cell_angle_gamma   119.95123265
_symmetry_Int_Tables_number   1
_chemical_formula_structural   AlV2O
_chemical_formula_sum   'Al2 V4 O2'
_cell_volume   90.59007397
_cell_formula_units_Z   2
loop_
 _symmetry_equiv_pos_site_id
 _symmetry_equiv_pos_as_xyz
  1  'x, y, z'
loop_
 _atom_site_type_symbol
 _atom_site_label
 _atom_site_symmetry_multiplicity
 _atom_site_fract_x
 _atom_site_fract_y
 _atom_site_fract_z
 _atom_site_occupancy
  Al  Al0  1  0.33212970  0.66787030  0.25000000  1
  Al  Al1  1  0.66671280  0.33328720  0.75000000  1
  V  V2  1  0.33324570  0.66675430  0.90269294  1
  V  V3  1  0.66598054  0.33401946  0.40269334  1
  V  V4  1  0.66598054  0.33401946  0.09730666  1
  V  V5  1  0.33324570  0.66675430  0.59730706  1
  O  O6  1  0.99968586  0.00031414  0.99999970  1
  O  O7  1  0.99968586  0.00031414  0.50000030  1
