# generated using pymatgen
data_AlV2O
_symmetry_space_group_name_H-M   'P 1'
_cell_length_a   2.81953526
_cell_length_b   2.81953526
_cell_length_c   14.50922862
_cell_angle_alpha   90.00000000
_cell_angle_beta   90.00000000
_cell_angle_gamma   119.96685936
_symmetry_Int_Tables_number   1
_chemical_formula_structural   AlV2O
_chemical_formula_sum   'Al2 V4 O2'
_cell_volume   99.92518246
_cell_formula_units_Z   2
loop_
 _symmetry_equiv_pos_site_id
 _symmetry_equiv_pos_as_xyz
  1  'x, y, z'
loop_
 _atom_site_type_symbol
 _atom_site_label
 _atom_site_symmetry_multiplicity
 _atom_site_fract_x
 _atom_site_fract_y
 _atom_site_fract_z
 _atom_site_occupancy
  Al  Al0  1  0.33214820  0.66785180  0.25000000  1
  Al  Al1  1  0.66670612  0.33329388  0.75000000  1
  V  V2  1  0.33323574  0.66676426  0.90444405  1
  V  V3  1  0.66598055  0.33401945  0.40444275  1
  V  V4  1  0.66598055  0.33401945  0.09555725  1
  V  V5  1  0.33323574  0.66676426  0.59555595  1
  O  O6  1  0.99968990  0.00031010  0.99999935  1
  O  O7  1  0.99968990  0.00031010  0.50000065  1
