# generated using pymatgen
data_AlV2O
_symmetry_space_group_name_H-M   'P 1'
_cell_length_a   2.80090970
_cell_length_b   2.80090970
_cell_length_c   14.44591664
_cell_angle_alpha   90.00000000
_cell_angle_beta   90.00000000
_cell_angle_gamma   119.96354181
_symmetry_Int_Tables_number   1
_chemical_formula_structural   AlV2O
_chemical_formula_sum   'Al2 V4 O2'
_cell_volume   98.18234106
_cell_formula_units_Z   2
loop_
 _symmetry_equiv_pos_site_id
 _symmetry_equiv_pos_as_xyz
  1  'x, y, z'
loop_
 _atom_site_type_symbol
 _atom_site_label
 _atom_site_symmetry_multiplicity
 _atom_site_fract_x
 _atom_site_fract_y
 _atom_site_fract_z
 _atom_site_occupancy
  Al  Al0  1  0.33214513  0.66785487  0.25000000  1
  Al  Al1  1  0.66670742  0.33329258  0.75000000  1
  V  V2  1  0.33323750  0.66676250  0.90407566  1
  V  V3  1  0.66598088  0.33401912  0.40407728  1
  V  V4  1  0.66598088  0.33401912  0.09592272  1
  V  V5  1  0.33323750  0.66676250  0.59592434  1
  O  O6  1  0.99968869  0.00031131  0.99999945  1
  O  O7  1  0.99968869  0.00031131  0.50000055  1
