# generated using pymatgen
data_Ti3AlO2
_symmetry_space_group_name_H-M   'P 1'
_cell_length_a   3.00147566
_cell_length_b   3.00147567
_cell_length_c   18.99166427
_cell_angle_alpha   90.00000000
_cell_angle_beta   90.00000000
_cell_angle_gamma   119.99999991
_symmetry_Int_Tables_number   1
_chemical_formula_structural   Ti3AlO2
_chemical_formula_sum   'Ti6 Al2 O4'
_cell_volume   148.17103324
_cell_formula_units_Z   2
loop_
 _symmetry_equiv_pos_site_id
 _symmetry_equiv_pos_as_xyz
  1  'x, y, z'
loop_
 _atom_site_type_symbol
 _atom_site_label
 _atom_site_symmetry_multiplicity
 _atom_site_fract_x
 _atom_site_fract_y
 _atom_site_fract_z
 _atom_site_occupancy
  Ti  Ti0  1  0.33333333  0.66666667  0.86728900  1
  Ti  Ti1  1  0.66666667  0.33333333  0.36728900  1
  Ti  Ti2  1  0.66666667  0.33333333  0.13271100  1
  Ti  Ti3  1  0.33333333  0.66666667  0.63271100  1
  Ti  Ti4  1  0.00000000  0.00000000  0.00000000  1
  Ti  Ti5  1  0.00000000  0.00000000  0.50000000  1
  Al  Al6  1  0.00000000  0.00000000  0.25000000  1
  Al  Al7  1  0.00000000  0.00000000  0.75000000  1
  O  O8  1  0.33333333  0.66666667  0.43387582  1
  O  O9  1  0.66666667  0.33333333  0.93387582  1
  O  O10  1  0.66666667  0.33333333  0.56612418  1
  O  O11  1  0.33333333  0.66666667  0.06612418  1
