# generated using pymatgen
data_HfTaTiNbTcC5
_symmetry_space_group_name_H-M   'P 1'
_cell_length_a   7.05883664
_cell_length_b   7.06331511
_cell_length_c   4.45232361
_cell_angle_alpha   90.00000000
_cell_angle_beta   90.00000000
_cell_angle_gamma   89.73126897
_symmetry_Int_Tables_number   1
_chemical_formula_structural   HfTaTiNbTcC5
_chemical_formula_sum   'Hf2 Ta2 Ti2 Nb2 Tc2 C10'
_cell_volume   221.98501509
_cell_formula_units_Z   2
loop_
 _symmetry_equiv_pos_site_id
 _symmetry_equiv_pos_as_xyz
  1  'x, y, z'
loop_
 _atom_site_type_symbol
 _atom_site_label
 _atom_site_symmetry_multiplicity
 _atom_site_fract_x
 _atom_site_fract_y
 _atom_site_fract_z
 _atom_site_occupancy
  C  C0  1  0.29614415  0.90558212  0.00000000  1
  C  C1  1  0.49501779  0.49136847  0.00000000  1
  C  C2  1  0.39880385  0.19352461  0.50000000  1
  C  C3  1  0.09750096  0.29695157  0.00000000  1
  C  C4  1  0.00336984  0.99872363  0.50000000  1
  C  C5  1  0.69574951  0.10608226  0.00000000  1
  C  C6  1  0.59904535  0.80186231  0.50000000  1
  C  C7  1  0.19797386  0.60269583  0.50000000  1
  C  C8  1  0.90527302  0.70488837  0.00000000  1
  C  C9  1  0.81006507  0.40408114  0.50000000  1
  Hf  Hf10  1  0.50342118  0.49427071  0.50000000  1
  Hf  Hf11  1  0.60093939  0.81052504  0.00000000  1
  Nb  Nb12  1  0.20355225  0.59461758  0.00000000  1
  Nb  Nb13  1  0.10167847  0.29566506  0.50000000  1
  Ta  Ta14  1  0.89744120  0.69221849  0.50000000  1
  Ta  Ta15  1  0.00105726  0.00858292  0.00000000  1
  Ti  Ti16  1  0.30337030  0.89983783  0.50000000  1
  Ti  Ti17  1  0.40645893  0.19498134  0.00000000  1
  Tc  Tc18  1  0.70913631  0.12325210  0.50000000  1
  Tc  Tc19  1  0.77400131  0.38028860  0.00000000  1
