# generated using pymatgen
data_HfTaTiNbWC5
_symmetry_space_group_name_H-M   'P 1'
_cell_length_a   7.06881839
_cell_length_b   7.07299870
_cell_length_c   4.45026050
_cell_angle_alpha   90.00000000
_cell_angle_beta   90.00000000
_cell_angle_gamma   89.95108739
_symmetry_Int_Tables_number   1
_chemical_formula_structural   HfTaTiNbWC5
_chemical_formula_sum   'Hf2 Ta2 Ti2 Nb2 W2 C10'
_cell_volume   222.50290086
_cell_formula_units_Z   2
loop_
 _symmetry_equiv_pos_site_id
 _symmetry_equiv_pos_as_xyz
  1  'x, y, z'
loop_
 _atom_site_type_symbol
 _atom_site_label
 _atom_site_symmetry_multiplicity
 _atom_site_fract_x
 _atom_site_fract_y
 _atom_site_fract_z
 _atom_site_occupancy
  C  C0  1  0.29561979  0.90398913  0.00000000  1
  C  C1  1  0.50325242  0.49243083  0.00000000  1
  C  C2  1  0.40190122  0.19552322  0.50000000  1
  C  C3  1  0.09701071  0.29619962  0.00000000  1
  C  C4  1  0.99805731  0.99901498  0.50000000  1
  C  C5  1  0.70005175  0.10935845  0.00000000  1
  C  C6  1  0.60201508  0.80608234  0.50000000  1
  C  C7  1  0.19579317  0.60023410  0.50000000  1
  C  C8  1  0.90286218  0.69958772  0.00000000  1
  C  C9  1  0.80464141  0.39766852  0.50000000  1
  Hf  Hf10  1  0.50034327  0.50093315  0.50000000  1
  Hf  Hf11  1  0.59747530  0.80824902  0.00000000  1
  Nb  Nb12  1  0.20313778  0.59611176  0.00000000  1
  Nb  Nb13  1  0.10822563  0.29092121  0.50000000  1
  Ta  Ta14  1  0.90140082  0.70050754  0.50000000  1
  Ta  Ta15  1  0.00615198  0.99796751  0.00000000  1
  Ti  Ti16  1  0.30167102  0.90143023  0.50000000  1
  Ti  Ti17  1  0.39816765  0.19881196  0.00000000  1
  W  W18  1  0.68702868  0.10672813  0.50000000  1
  W  W19  1  0.79519285  0.39825058  0.00000000  1
