# generated using pymatgen
data_Ti3AlN2
_symmetry_space_group_name_H-M   'P 1'
_cell_length_a   2.99559235
_cell_length_b   2.99559235
_cell_length_c   18.51485352
_cell_angle_alpha   90.00000000
_cell_angle_beta   90.00000000
_cell_angle_gamma   119.99999986
_symmetry_Int_Tables_number   1
_chemical_formula_structural   Ti3AlN2
_chemical_formula_sum   'Ti6 Al2 N4'
_cell_volume   143.88527089
_cell_formula_units_Z   2
loop_
 _symmetry_equiv_pos_site_id
 _symmetry_equiv_pos_as_xyz
  1  'x, y, z'
loop_
 _atom_site_type_symbol
 _atom_site_label
 _atom_site_symmetry_multiplicity
 _atom_site_fract_x
 _atom_site_fract_y
 _atom_site_fract_z
 _atom_site_occupancy
  Ti  Ti0  1  0.33333333  0.66666667  0.87071466  1
  Ti  Ti1  1  0.66666667  0.33333333  0.37071466  1
  Ti  Ti2  1  0.66666667  0.33333333  0.12928534  1
  Ti  Ti3  1  0.33333333  0.66666667  0.62928534  1
  Ti  Ti4  1  0.00000000  0.00000000  0.00000000  1
  Ti  Ti5  1  0.00000000  0.00000000  0.50000000  1
  Al  Al6  1  0.00000000  0.00000000  0.25000000  1
  Al  Al7  1  0.00000000  0.00000000  0.75000000  1
  N  N8  1  0.33333333  0.66666667  0.43241529  1
  N  N9  1  0.66666667  0.33333333  0.93241529  1
  N  N10  1  0.66666667  0.33333333  0.56758471  1
  N  N11  1  0.33333333  0.66666667  0.06758471  1
