# generated using pymatgen
data_HfTaTiNbPtC5
_symmetry_space_group_name_H-M   'P 1'
_cell_length_a   7.07336611
_cell_length_b   7.07933777
_cell_length_c   4.52878286
_cell_angle_alpha   90.00000000
_cell_angle_beta   90.00000000
_cell_angle_gamma   89.92569481
_symmetry_Int_Tables_number   1
_chemical_formula_structural   HfTaTiNbPtC5
_chemical_formula_sum   'Hf2 Ta2 Ti2 Nb2 Pt2 C10'
_cell_volume   226.77746924
_cell_formula_units_Z   2
loop_
 _symmetry_equiv_pos_site_id
 _symmetry_equiv_pos_as_xyz
  1  'x, y, z'
loop_
 _atom_site_type_symbol
 _atom_site_label
 _atom_site_symmetry_multiplicity
 _atom_site_fract_x
 _atom_site_fract_y
 _atom_site_fract_z
 _atom_site_occupancy
  C  C0  1  0.30075659  0.90714355  0.00000000  1
  C  C1  1  0.49055329  0.49602185  0.00000000  1
  C  C2  1  0.39349705  0.19410084  0.50000000  1
  C  C3  1  0.09917717  0.29863744  0.00000000  1
  C  C4  1  0.00158022  0.99940251  0.50000000  1
  C  C5  1  0.70168126  0.11230760  0.00000000  1
  C  C6  1  0.59578497  0.79094646  0.50000000  1
  C  C7  1  0.19189088  0.60346284  0.50000000  1
  C  C8  1  0.90687749  0.70892140  0.00000000  1
  C  C9  1  0.80437125  0.39006294  0.50000000  1
  Hf  Hf10  1  0.50593271  0.48695917  0.50000000  1
  Hf  Hf11  1  0.60180054  0.80347134  0.00000000  1
  Nb  Nb12  1  0.19455595  0.59455348  0.00000000  1
  Nb  Nb13  1  0.08876307  0.29785237  0.50000000  1
  Ta  Ta14  1  0.90358109  0.71666864  0.50000000  1
  Ta  Ta15  1  0.01164441  0.00950187  0.00000000  1
  Ti  Ti16  1  0.31136525  0.90099125  0.50000000  1
  Ti  Ti17  1  0.41623631  0.19417314  0.00000000  1
  Pt  Pt18  1  0.68269807  0.08995985  0.50000000  1
  Pt  Pt19  1  0.79725244  0.40486146  0.00000000  1
