# generated using pymatgen
data_HfTaTiNbOsC5
_symmetry_space_group_name_H-M   'P 1'
_cell_length_a   7.06501515
_cell_length_b   7.07884459
_cell_length_c   4.43847736
_cell_angle_alpha   90.00000000
_cell_angle_beta   90.00000000
_cell_angle_gamma   90.47172134
_symmetry_Int_Tables_number   1
_chemical_formula_structural   HfTaTiNbOsC5
_chemical_formula_sum   'Hf2 Ta2 Ti2 Nb2 Os2 C10'
_cell_volume   221.97024700
_cell_formula_units_Z   2
loop_
 _symmetry_equiv_pos_site_id
 _symmetry_equiv_pos_as_xyz
  1  'x, y, z'
loop_
 _atom_site_type_symbol
 _atom_site_label
 _atom_site_symmetry_multiplicity
 _atom_site_fract_x
 _atom_site_fract_y
 _atom_site_fract_z
 _atom_site_occupancy
  C  C0  1  0.29845161  0.90938585  0.00000000  1
  C  C1  1  0.49027089  0.49904552  0.00000000  1
  C  C2  1  0.40235092  0.19057831  0.50000000  1
  C  C3  1  0.09109560  0.29636466  0.00000000  1
  C  C4  1  0.00963272  0.99072345  0.50000000  1
  C  C5  1  0.70283221  0.12995097  0.00000000  1
  C  C6  1  0.59642672  0.79629079  0.50000000  1
  C  C7  1  0.19239585  0.59575243  0.50000000  1
  C  C8  1  0.90582999  0.70960373  0.00000000  1
  C  C9  1  0.80322558  0.38042022  0.50000000  1
  Hf  Hf10  1  0.50100062  0.49451086  0.50000000  1
  Hf  Hf11  1  0.59789984  0.81108244  0.00000000  1
  Nb  Nb12  1  0.20412395  0.59104946  0.00000000  1
  Nb  Nb13  1  0.08942239  0.29571119  0.50000000  1
  Ta  Ta14  1  0.89682773  0.69737404  0.50000000  1
  Ta  Ta15  1  0.00305398  0.00137605  0.00000000  1
  Ti  Ti16  1  0.29995461  0.90574658  0.50000000  1
  Ti  Ti17  1  0.41652848  0.19651583  0.00000000  1
  Os  Os18  1  0.72304451  0.07620987  0.50000000  1
  Os  Os19  1  0.77563183  0.43230777  0.00000000  1
