# generated using pymatgen
data_LuHfTaTiNbC5
_symmetry_space_group_name_H-M   'P 1'
_cell_length_a   7.20971661
_cell_length_b   7.21682268
_cell_length_c   4.55101671
_cell_angle_alpha   90.00000000
_cell_angle_beta   90.00000000
_cell_angle_gamma   89.73948546
_symmetry_Int_Tables_number   1
_chemical_formula_structural   LuHfTaTiNbC5
_chemical_formula_sum   'Lu2 Hf2 Ta2 Ti2 Nb2 C10'
_cell_volume   236.79262383
_cell_formula_units_Z   2
loop_
 _symmetry_equiv_pos_site_id
 _symmetry_equiv_pos_as_xyz
  1  'x, y, z'
loop_
 _atom_site_type_symbol
 _atom_site_label
 _atom_site_symmetry_multiplicity
 _atom_site_fract_x
 _atom_site_fract_y
 _atom_site_fract_z
 _atom_site_occupancy
  C  C0  1  0.29556460  0.90123434  0.00000000  1
  C  C1  1  0.48460480  0.49479340  0.00000000  1
  C  C2  1  0.38723047  0.19537943  0.50000000  1
  C  C3  1  0.11050080  0.29566652  0.00000000  1
  C  C4  1  0.01243548  0.99834835  0.50000000  1
  C  C5  1  0.70465548  0.09043894  0.00000000  1
  C  C6  1  0.59437973  0.79365350  0.50000000  1
  C  C7  1  0.19675840  0.60430290  0.50000000  1
  C  C8  1  0.90682480  0.70919986  0.00000000  1
  C  C9  1  0.81126425  0.41560245  0.50000000  1
  Hf  Hf10  1  0.49342418  0.49927504  0.50000000  1
  Hf  Hf11  1  0.59733265  0.80131145  0.00000000  1
  Nb  Nb12  1  0.20082702  0.60165704  0.00000000  1
  Nb  Nb13  1  0.10340522  0.29628805  0.50000000  1
  Ta  Ta14  1  0.90362597  0.70069934  0.50000000  1
  Ta  Ta15  1  0.00142918  0.00198100  0.00000000  1
  Ti  Ti16  1  0.30243626  0.90120587  0.50000000  1
  Ti  Ti17  1  0.39475180  0.19627208  0.00000000  1
  Lu  Lu18  1  0.69822786  0.10171991  0.50000000  1
  Lu  Lu19  1  0.80032106  0.40097055  0.00000000  1
