# generated using pymatgen
data_HfTaTiNbIrC5
_symmetry_space_group_name_H-M   'P 1'
_cell_length_a   7.06001130
_cell_length_b   7.03253289
_cell_length_c   4.48936515
_cell_angle_alpha   90.00000000
_cell_angle_beta   90.00000000
_cell_angle_gamma   89.82197708
_symmetry_Int_Tables_number   1
_chemical_formula_structural   HfTaTiNbIrC5
_chemical_formula_sum   'Hf2 Ta2 Ti2 Nb2 Ir2 C10'
_cell_volume   222.89483371
_cell_formula_units_Z   2
loop_
 _symmetry_equiv_pos_site_id
 _symmetry_equiv_pos_as_xyz
  1  'x, y, z'
loop_
 _atom_site_type_symbol
 _atom_site_label
 _atom_site_symmetry_multiplicity
 _atom_site_fract_x
 _atom_site_fract_y
 _atom_site_fract_z
 _atom_site_occupancy
  C  C0  1  0.30004753  0.90622211  0.00000000  1
  C  C1  1  0.49279456  0.49255719  0.00000000  1
  C  C2  1  0.39482855  0.19133951  0.50000000  1
  C  C3  1  0.09547232  0.29943441  0.00000000  1
  C  C4  1  0.99963296  0.99729879  0.50000000  1
  C  C5  1  0.70516213  0.12235343  0.00000000  1
  C  C6  1  0.59650933  0.79043527  0.50000000  1
  C  C7  1  0.19360354  0.60006161  0.50000000  1
  C  C8  1  0.90718104  0.71458102  0.00000000  1
  C  C9  1  0.80680298  0.38198916  0.50000000  1
  Hf  Hf10  1  0.50878074  0.48867386  0.50000000  1
  Hf  Hf11  1  0.60134089  0.80509723  0.00000000  1
  Nb  Nb12  1  0.19741221  0.59592248  0.00000000  1
  Nb  Nb13  1  0.10593505  0.29377176  0.50000000  1
  Ta  Ta14  1  0.89841362  0.69888668  0.50000000  1
  Ta  Ta15  1  0.99513277  0.01148297  0.00000000  1
  Ti  Ti16  1  0.30828545  0.89922575  0.50000000  1
  Ti  Ti17  1  0.41428996  0.19364077  0.00000000  1
  Ir  Ir18  1  0.67677828  0.09083867  0.50000000  1
  Ir  Ir19  1  0.80159607  0.42618735  0.00000000  1
