# generated using pymatgen
data_HfTaTiNbAuC5
_symmetry_space_group_name_H-M   'P 1'
_cell_length_a   7.13586061
_cell_length_b   7.35427895
_cell_length_c   4.46947867
_cell_angle_alpha   90.00000000
_cell_angle_beta   90.00000000
_cell_angle_gamma   86.80447218
_symmetry_Int_Tables_number   1
_chemical_formula_structural   HfTaTiNbAuC5
_chemical_formula_sum   'Hf2 Ta2 Ti2 Nb2 Au2 C10'
_cell_volume   234.18955641
_cell_formula_units_Z   2
loop_
 _symmetry_equiv_pos_site_id
 _symmetry_equiv_pos_as_xyz
  1  'x, y, z'
loop_
 _atom_site_type_symbol
 _atom_site_label
 _atom_site_symmetry_multiplicity
 _atom_site_fract_x
 _atom_site_fract_y
 _atom_site_fract_z
 _atom_site_occupancy
  C  C0  1  0.29879359  0.90206033  0.00000000  1
  C  C1  1  0.48716447  0.48671991  0.00000000  1
  C  C2  1  0.38963070  0.19435810  0.50000000  1
  C  C3  1  0.09837726  0.30823800  0.00000000  1
  C  C4  1  0.00143323  0.01637119  0.50000000  1
  C  C5  1  0.68659359  0.07985912  0.00000000  1
  C  C6  1  0.59398706  0.77030013  0.50000000  1
  C  C7  1  0.20170824  0.61062506  0.50000000  1
  C  C8  1  0.91679831  0.73055011  0.00000000  1
  C  C9  1  0.82647816  0.43526129  0.50000000  1
  Hf  Hf10  1  0.51183212  0.47595839  0.50000000  1
  Hf  Hf11  1  0.60323129  0.78317511  0.00000000  1
  Nb  Nb12  1  0.20191801  0.61039750  0.00000000  1
  Nb  Nb13  1  0.09079646  0.31316428  0.50000000  1
  Ta  Ta14  1  0.90755321  0.72942271  0.50000000  1
  Ta  Ta15  1  0.00281956  0.02203812  0.00000000  1
  Ti  Ti16  1  0.31014335  0.89278519  0.50000000  1
  Ti  Ti17  1  0.41100710  0.17879683  0.00000000  1
  Au  Au18  1  0.67120944  0.07204547  0.50000000  1
  Au  Au19  1  0.78852484  0.38787317  0.00000000  1
