# generated using pymatgen
data_HfZrTaTiNbC5
_symmetry_space_group_name_H-M   'P 1'
_cell_length_a   7.18733905
_cell_length_b   7.18388277
_cell_length_c   4.50815923
_cell_angle_alpha   90.00000000
_cell_angle_beta   90.00000000
_cell_angle_gamma   89.80844661
_symmetry_Int_Tables_number   1
_chemical_formula_structural   HfZrTaTiNbC5
_chemical_formula_sum   'Hf2 Zr2 Ta2 Ti2 Nb2 C10'
_cell_volume   232.76848984
_cell_formula_units_Z   2
loop_
 _symmetry_equiv_pos_site_id
 _symmetry_equiv_pos_as_xyz
  1  'x, y, z'
loop_
 _atom_site_type_symbol
 _atom_site_label
 _atom_site_symmetry_multiplicity
 _atom_site_fract_x
 _atom_site_fract_y
 _atom_site_fract_z
 _atom_site_occupancy
  C  C0  1  0.29516947  0.90235769  0.00000000  1
  C  C1  1  0.49133927  0.49693945  0.00000000  1
  C  C2  1  0.39208532  0.19476344  0.50000000  1
  C  C3  1  0.10712742  0.29626903  0.00000000  1
  C  C4  1  0.00844671  0.99822649  0.50000000  1
  C  C5  1  0.70103385  0.09775704  0.00000000  1
  C  C6  1  0.59817762  0.79835876  0.50000000  1
  C  C7  1  0.19630131  0.60278583  0.50000000  1
  C  C8  1  0.90465650  0.70691027  0.00000000  1
  C  C9  1  0.80551400  0.40677414  0.50000000  1
  Hf  Hf10  1  0.49472931  0.49806484  0.50000000  1
  Hf  Hf11  1  0.59580876  0.80186797  0.00000000  1
  Nb  Nb12  1  0.20222285  0.60106439  0.00000000  1
  Nb  Nb13  1  0.10501010  0.29555466  0.50000000  1
  Ta  Ta14  1  0.90207224  0.70211149  0.50000000  1
  Ta  Ta15  1  0.00470018  0.00032731  0.00000000  1
  Ti  Ti16  1  0.30062923  0.90037775  0.50000000  1
  Ti  Ti17  1  0.39626983  0.19503480  0.00000000  1
  Zr  Zr18  1  0.69734734  0.10199588  0.50000000  1
  Zr  Zr19  1  0.80135870  0.40245879  0.00000000  1
