# generated using pymatgen
data_YHfTaTiNbC5
_symmetry_space_group_name_H-M   'P 1'
_cell_length_a   7.27723466
_cell_length_b   7.27278844
_cell_length_c   4.56901958
_cell_angle_alpha   90.00000000
_cell_angle_beta   90.00000000
_cell_angle_gamma   89.75855149
_symmetry_Int_Tables_number   1
_chemical_formula_structural   YHfTaTiNbC5
_chemical_formula_sum   'Y2 Hf2 Ta2 Ti2 Nb2 C10'
_cell_volume   241.81681489
_cell_formula_units_Z   2
loop_
 _symmetry_equiv_pos_site_id
 _symmetry_equiv_pos_as_xyz
  1  'x, y, z'
loop_
 _atom_site_type_symbol
 _atom_site_label
 _atom_site_symmetry_multiplicity
 _atom_site_fract_x
 _atom_site_fract_y
 _atom_site_fract_z
 _atom_site_occupancy
  C  C0  1  0.29595909  0.90048387  0.00000000  1
  C  C1  1  0.48052015  0.49471490  0.00000000  1
  C  C2  1  0.38379974  0.19707895  0.50000000  1
  C  C3  1  0.11262323  0.29353242  0.00000000  1
  C  C4  1  0.01597618  0.99843791  0.50000000  1
  C  C5  1  0.70919858  0.08317581  0.00000000  1
  C  C6  1  0.59172163  0.79121320  0.50000000  1
  C  C7  1  0.19640627  0.60563146  0.50000000  1
  C  C8  1  0.90858115  0.71161259  0.00000000  1
  C  C9  1  0.81379429  0.42140291  0.50000000  1
  Hf  Hf10  1  0.48918422  0.50136954  0.50000000  1
  Hf  Hf11  1  0.59723305  0.79974146  0.00000000  1
  Nb  Nb12  1  0.20114201  0.60449408  0.00000000  1
  Nb  Nb13  1  0.10460486  0.29504125  0.50000000  1
  Ta  Ta14  1  0.90766659  0.70082087  0.50000000  1
  Ta  Ta15  1  0.00292825  0.00030804  0.00000000  1
  Ti  Ti16  1  0.30233791  0.90081325  0.50000000  1
  Ti  Ti17  1  0.38894467  0.19728572  0.00000000  1
  Y  Y18  1  0.69723456  0.10165832  0.50000000  1
  Y  Y19  1  0.80014357  0.40118344  0.00000000  1
