# generated using pymatgen
data_HfTaTiNbPdC5
_symmetry_space_group_name_H-M   'P 1'
_cell_length_a   7.10704889
_cell_length_b   7.09338089
_cell_length_c   4.49255553
_cell_angle_alpha   90.00000000
_cell_angle_beta   90.00000000
_cell_angle_gamma   89.97346410
_symmetry_Int_Tables_number   1
_chemical_formula_structural   HfTaTiNbPdC5
_chemical_formula_sum   'Hf2 Ta2 Ti2 Nb2 Pd2 C10'
_cell_volume   226.48319915
_cell_formula_units_Z   2
loop_
 _symmetry_equiv_pos_site_id
 _symmetry_equiv_pos_as_xyz
  1  'x, y, z'
loop_
 _atom_site_type_symbol
 _atom_site_label
 _atom_site_symmetry_multiplicity
 _atom_site_fract_x
 _atom_site_fract_y
 _atom_site_fract_z
 _atom_site_occupancy
  C  C0  1  0.30015877  0.90635885  0.00000000  1
  C  C1  1  0.48541901  0.49359238  0.00000000  1
  C  C2  1  0.39519493  0.19351919  0.50000000  1
  C  C3  1  0.09669983  0.29957147  0.00000000  1
  C  C4  1  0.00626874  0.99990911  0.50000000  1
  C  C5  1  0.69868481  0.10518128  0.00000000  1
  C  C6  1  0.59683158  0.79115341  0.50000000  1
  C  C7  1  0.19493768  0.60389318  0.50000000  1
  C  C8  1  0.90639119  0.70945028  0.00000000  1
  C  C9  1  0.80830719  0.40304087  0.50000000  1
  Hf  Hf10  1  0.50336809  0.48607209  0.50000000  1
  Hf  Hf11  1  0.60341874  0.80234319  0.00000000  1
  Nb  Nb12  1  0.19624472  0.59760548  0.00000000  1
  Nb  Nb13  1  0.08392553  0.30083593  0.50000000  1
  Ta  Ta14  1  0.90037754  0.71427454  0.50000000  1
  Ta  Ta15  1  0.01132777  0.00998205  0.00000000  1
  Ti  Ti16  1  0.31186102  0.89988200  0.50000000  1
  Ti  Ti17  1  0.41641982  0.19221730  0.00000000  1
  Pd  Pd18  1  0.69057780  0.09337116  0.50000000  1
  Pd  Pd19  1  0.79358526  0.39774625  0.00000000  1
