# generated using pymatgen
data_Al4V8C3N
_symmetry_space_group_name_H-M   'P 1'
_cell_length_a   5.80563690
_cell_length_b   5.80562511
_cell_length_c   13.11042139
_cell_angle_alpha   90.00000000
_cell_angle_beta   90.00000000
_cell_angle_gamma   119.99993293
_symmetry_Int_Tables_number   1
_chemical_formula_structural   Al4V8C3N
_chemical_formula_sum   'Al8 V16 C6 N2'
_cell_volume   382.68940183
_cell_formula_units_Z   2
loop_
 _symmetry_equiv_pos_site_id
 _symmetry_equiv_pos_as_xyz
  1  'x, y, z'
loop_
 _atom_site_type_symbol
 _atom_site_label
 _atom_site_symmetry_multiplicity
 _atom_site_fract_x
 _atom_site_fract_y
 _atom_site_fract_z
 _atom_site_occupancy
  Al  Al0  1  0.16642480  0.33321241  0.25000000  1
  Al  Al1  1  0.33309663  0.16654831  0.75055750  1
  Al  Al2  1  0.16642480  0.83321240  0.25000000  1
  Al  Al3  1  0.33309663  0.66654832  0.74944250  1
  Al  Al4  1  0.66690338  0.33345169  0.25055750  1
  Al  Al5  1  0.83357519  0.16678759  0.75000000  1
  Al  Al6  1  0.66690338  0.83345168  0.24944250  1
  Al  Al7  1  0.83357519  0.66678760  0.75000000  1
  V  V8  1  0.16607585  0.33411091  0.91523217  1
  V  V9  1  0.33205391  0.16602694  0.41506380  1
  V  V10  1  0.33347289  0.16673643  0.08505444  1
  V  V11  1  0.16607585  0.33196495  0.58476783  1
  V  V12  1  0.16607585  0.83196494  0.91523217  1
  V  V13  1  0.33347289  0.66673644  0.41494556  1
  V  V14  1  0.33205391  0.66602695  0.08493620  1
  V  V15  1  0.16607585  0.83411090  0.58476783  1
  V  V16  1  0.66794610  0.33397306  0.91506380  1
  V  V17  1  0.83392414  0.16588909  0.41523217  1
  V  V18  1  0.83392414  0.16803505  0.08476783  1
  V  V19  1  0.66652712  0.33326357  0.58505444  1
  V  V20  1  0.66652712  0.83326356  0.91494556  1
  V  V21  1  0.83392414  0.66803506  0.41523217  1
  V  V22  1  0.83392414  0.66588910  0.08476783  1
  V  V23  1  0.66794610  0.83397305  0.58493620  1
  C  C24  1  0.00000000  0.00000000  0.00000000  1
  C  C25  1  0.00000000  0.50000000  0.50000000  1
  C  C26  1  0.50000000  0.00000000  0.00000000  1
  C  C27  1  0.50000000  0.00000000  0.50000000  1
  C  C28  1  0.50000000  0.50000000  0.00000000  1
  C  C29  1  0.50000000  0.50000000  0.50000000  1
  N  N30  1  0.00000000  0.00000000  0.50000000  1
  N  N31  1  0.00000000  0.50000000  0.00000000  1
