# generated using pymatgen
data_Al4V8C3N
_symmetry_space_group_name_H-M   'P 1'
_cell_length_a   5.84753538
_cell_length_b   5.84753487
_cell_length_c   13.19649280
_cell_angle_alpha   90.00000000
_cell_angle_beta   90.00000000
_cell_angle_gamma   119.99999714
_symmetry_Int_Tables_number   1
_chemical_formula_structural   Al4V8C3N
_chemical_formula_sum   'Al8 V16 C6 N2'
_cell_volume   390.78226659
_cell_formula_units_Z   2
loop_
 _symmetry_equiv_pos_site_id
 _symmetry_equiv_pos_as_xyz
  1  'x, y, z'
loop_
 _atom_site_type_symbol
 _atom_site_label
 _atom_site_symmetry_multiplicity
 _atom_site_fract_x
 _atom_site_fract_y
 _atom_site_fract_z
 _atom_site_occupancy
  Al  Al0  1  0.16640901  0.33320452  0.25000000  1
  Al  Al1  1  0.33308057  0.16654028  0.75057796  1
  Al  Al2  1  0.16640901  0.83320451  0.25000000  1
  Al  Al3  1  0.33308057  0.66654029  0.74942204  1
  Al  Al4  1  0.66691944  0.33345972  0.25057796  1
  Al  Al5  1  0.83359098  0.16679548  0.75000000  1
  Al  Al6  1  0.66691944  0.83345971  0.24942204  1
  Al  Al7  1  0.83359098  0.66679549  0.75000000  1
  V  V8  1  0.16610501  0.33408731  0.91598453  1
  V  V9  1  0.33211700  0.16605849  0.41582262  1
  V  V10  1  0.33348222  0.16674110  0.08429441  1
  V  V11  1  0.16610501  0.33201771  0.58401547  1
  V  V12  1  0.16610501  0.83201770  0.91598453  1
  V  V13  1  0.33348222  0.66674111  0.41570559  1
  V  V14  1  0.33211700  0.66605850  0.08417738  1
  V  V15  1  0.16610501  0.83408730  0.58401547  1
  V  V16  1  0.66788301  0.33394151  0.91582262  1
  V  V17  1  0.83389498  0.16591269  0.41598453  1
  V  V18  1  0.83389498  0.16798229  0.08401547  1
  V  V19  1  0.66651779  0.33325890  0.58429441  1
  V  V20  1  0.66651779  0.83325889  0.91570559  1
  V  V21  1  0.83389498  0.66798230  0.41598453  1
  V  V22  1  0.83389498  0.66591270  0.08401547  1
  V  V23  1  0.66788301  0.83394150  0.58417738  1
  C  C24  1  0.00000000  0.00000000  0.00000000  1
  C  C25  1  0.00000000  0.50000000  0.50000000  1
  C  C26  1  0.50000000  0.00000000  0.00000000  1
  C  C27  1  0.50000000  0.00000000  0.50000000  1
  C  C28  1  0.50000000  0.50000000  0.00000000  1
  C  C29  1  0.50000000  0.50000000  0.50000000  1
  N  N30  1  0.00000000  0.00000000  0.50000000  1
  N  N31  1  0.00000000  0.50000000  0.00000000  1
