# generated using pymatgen
data_Al4V8C3N
_symmetry_space_group_name_H-M   'P 1'
_cell_length_a   5.76412443
_cell_length_b   5.76413078
_cell_length_c   13.02256503
_cell_angle_alpha   90.00000000
_cell_angle_beta   90.00000000
_cell_angle_gamma   120.00003659
_symmetry_Int_Tables_number   1
_chemical_formula_structural   Al4V8C3N
_chemical_formula_sum   'Al8 V16 C6 N2'
_cell_volume   374.70904790
_cell_formula_units_Z   2
loop_
 _symmetry_equiv_pos_site_id
 _symmetry_equiv_pos_as_xyz
  1  'x, y, z'
loop_
 _atom_site_type_symbol
 _atom_site_label
 _atom_site_symmetry_multiplicity
 _atom_site_fract_x
 _atom_site_fract_y
 _atom_site_fract_z
 _atom_site_occupancy
  Al  Al0  1  0.16642036  0.33321019  0.25000000  1
  Al  Al1  1  0.33309192  0.16654596  0.75056522  1
  Al  Al2  1  0.16642036  0.83321018  0.25000000  1
  Al  Al3  1  0.33309192  0.66654597  0.74943478  1
  Al  Al4  1  0.66690809  0.33345404  0.25056522  1
  Al  Al5  1  0.83357963  0.16678981  0.75000000  1
  Al  Al6  1  0.66690809  0.83345403  0.24943478  1
  Al  Al7  1  0.83357963  0.66678982  0.75000000  1
  V  V8  1  0.16606922  0.33412279  0.91449917  1
  V  V9  1  0.33204390  0.16602194  0.41434659  1
  V  V10  1  0.33347936  0.16673967  0.08582275  1
  V  V11  1  0.16606922  0.33194645  0.58550083  1
  V  V12  1  0.16606922  0.83194644  0.91449917  1
  V  V13  1  0.33347936  0.66673968  0.41417725  1
  V  V14  1  0.33204390  0.66602195  0.08565341  1
  V  V15  1  0.16606922  0.83412278  0.58550083  1
  V  V16  1  0.66795611  0.33397806  0.91434659  1
  V  V17  1  0.83393077  0.16587721  0.41449917  1
  V  V18  1  0.83393077  0.16805355  0.08550083  1
  V  V19  1  0.66652065  0.33326033  0.58582275  1
  V  V20  1  0.66652065  0.83326032  0.91417725  1
  V  V21  1  0.83393077  0.66805356  0.41449917  1
  V  V22  1  0.83393077  0.66587722  0.08550083  1
  V  V23  1  0.66795611  0.83397805  0.58565341  1
  C  C24  1  0.00000000  0.00000000  0.00000000  1
  C  C25  1  0.00000000  0.50000000  0.50000000  1
  C  C26  1  0.50000000  0.00000000  0.00000000  1
  C  C27  1  0.50000000  0.00000000  0.50000000  1
  C  C28  1  0.50000000  0.50000000  0.00000000  1
  C  C29  1  0.50000000  0.50000000  0.50000000  1
  N  N30  1  0.00000000  0.00000000  0.50000000  1
  N  N31  1  0.00000000  0.50000000  0.00000000  1
