# generated using pymatgen
data_Al4V8C3N
_symmetry_space_group_name_H-M   'P 1'
_cell_length_a   5.72261453
_cell_length_b   5.72262493
_cell_length_c   12.93472015
_cell_angle_alpha   90.00000000
_cell_angle_beta   90.00000000
_cell_angle_gamma   120.00006026
_symmetry_Int_Tables_number   1
_chemical_formula_structural   Al4V8C3N
_chemical_formula_sum   'Al8 V16 C6 N2'
_cell_volume   366.84041911
_cell_formula_units_Z   2
loop_
 _symmetry_equiv_pos_site_id
 _symmetry_equiv_pos_as_xyz
  1  'x, y, z'
loop_
 _atom_site_type_symbol
 _atom_site_label
 _atom_site_symmetry_multiplicity
 _atom_site_fract_x
 _atom_site_fract_y
 _atom_site_fract_z
 _atom_site_occupancy
  Al  Al0  1  0.16642578  0.33321290  0.25000000  1
  Al  Al1  1  0.33309733  0.16654866  0.75055887  1
  Al  Al2  1  0.16642578  0.83321289  0.25000000  1
  Al  Al3  1  0.33309733  0.66654867  0.74944113  1
  Al  Al4  1  0.66690268  0.33345134  0.25055887  1
  Al  Al5  1  0.83357421  0.16678710  0.75000000  1
  Al  Al6  1  0.66690268  0.83345133  0.24944113  1
  Al  Al7  1  0.83357421  0.66678711  0.75000000  1
  V  V8  1  0.16605686  0.33413457  0.91378020  1
  V  V9  1  0.33201879  0.16600938  0.41363234  1
  V  V10  1  0.33347862  0.16673929  0.08656093  1
  V  V11  1  0.16605686  0.33192231  0.58621980  1
  V  V12  1  0.16605686  0.83192230  0.91378020  1
  V  V13  1  0.33347862  0.66673930  0.41343907  1
  V  V14  1  0.33201879  0.66600939  0.08636766  1
  V  V15  1  0.16605686  0.83413456  0.58621980  1
  V  V16  1  0.66798122  0.33399062  0.91363234  1
  V  V17  1  0.83394313  0.16586543  0.41378020  1
  V  V18  1  0.83394313  0.16807769  0.08621980  1
  V  V19  1  0.66652139  0.33326071  0.58656093  1
  V  V20  1  0.66652139  0.83326070  0.91343907  1
  V  V21  1  0.83394313  0.66807770  0.41378020  1
  V  V22  1  0.83394313  0.66586544  0.08621980  1
  V  V23  1  0.66798122  0.83399061  0.58636766  1
  C  C24  1  0.00000000  0.00000000  0.00000000  1
  C  C25  1  0.00000000  0.50000000  0.50000000  1
  C  C26  1  0.50000000  0.00000000  0.00000000  1
  C  C27  1  0.50000000  0.00000000  0.50000000  1
  C  C28  1  0.50000000  0.50000000  0.00000000  1
  C  C29  1  0.50000000  0.50000000  0.50000000  1
  N  N30  1  0.00000000  0.00000000  0.50000000  1
  N  N31  1  0.00000000  0.50000000  0.00000000  1
