# generated using pymatgen
data_Al4V8CN3
_symmetry_space_group_name_H-M   'P 1'
_cell_length_a   5.83957890
_cell_length_b   5.83963445
_cell_length_c   13.27019020
_cell_angle_alpha   90.01205590
_cell_angle_beta   90.00000000
_cell_angle_gamma   119.99968523
_symmetry_Int_Tables_number   1
_chemical_formula_structural   Al4V8CN3
_chemical_formula_sum   'Al8 V16 C2 N6'
_cell_volume   391.90096817
_cell_formula_units_Z   2
loop_
 _symmetry_equiv_pos_site_id
 _symmetry_equiv_pos_as_xyz
  1  'x, y, z'
loop_
 _atom_site_type_symbol
 _atom_site_label
 _atom_site_symmetry_multiplicity
 _atom_site_fract_x
 _atom_site_fract_y
 _atom_site_fract_z
 _atom_site_occupancy
  Al  Al0  1  0.16676912  0.33353825  0.24933208  1
  Al  Al1  1  0.33340221  0.16680441  0.75017684  1
  Al  Al2  1  0.16659779  0.83319558  0.24982316  1
  Al  Al3  1  0.33323088  0.66646176  0.75066792  1
  Al  Al4  1  0.66676913  0.33353825  0.24933208  1
  Al  Al5  1  0.83340220  0.16680441  0.75017684  1
  Al  Al6  1  0.66659780  0.83319558  0.24982316  1
  Al  Al7  1  0.83323087  0.66646176  0.75066792  1
  V  V8  1  0.16662210  0.33324422  0.91617519  1
  V  V9  1  0.33409585  0.16819169  0.41597528  1
  V  V10  1  0.33333423  0.16666844  0.08391472  1
  V  V11  1  0.16708748  0.33417499  0.58420695  1
  V  V12  1  0.16666577  0.83333155  0.91608528  1
  V  V13  1  0.33291252  0.66582502  0.41579305  1
  V  V14  1  0.33337790  0.66675579  0.08382481  1
  V  V15  1  0.16590415  0.83180830  0.58402472  1
  V  V16  1  0.66662211  0.33324422  0.91617519  1
  V  V17  1  0.83409584  0.16819169  0.41597528  1
  V  V18  1  0.83333422  0.16666844  0.08391472  1
  V  V19  1  0.66708749  0.33417499  0.58420695  1
  V  V20  1  0.66666578  0.83333155  0.91608528  1
  V  V21  1  0.83291251  0.66582502  0.41579305  1
  V  V22  1  0.83337789  0.66675579  0.08382481  1
  V  V23  1  0.66590416  0.83180830  0.58402472  1
  N  N24  1  0.00000000  0.00000000  0.00000000  1
  N  N25  1  0.00000000  0.50000000  0.00000000  1
  N  N26  1  0.00000000  0.50000000  0.50000000  1
  N  N27  1  0.50000000  0.00000000  0.00000000  1
  N  N28  1  0.50000000  0.50000000  0.00000000  1
  N  N29  1  0.50000000  0.50000000  0.50000000  1
  C  C30  1  0.00000000  0.00000000  0.50000000  1
  C  C31  1  0.50000000  0.00000000  0.50000000  1
