# generated using pymatgen
data_Al4V8C3N
_symmetry_space_group_name_H-M   'P 1'
_cell_length_a   5.88338491
_cell_length_b   5.88337780
_cell_length_c   13.27058189
_cell_angle_alpha   90.00000000
_cell_angle_beta   90.00000000
_cell_angle_gamma   119.99996010
_symmetry_Int_Tables_number   1
_chemical_formula_structural   Al4V8C3N
_chemical_formula_sum   'Al8 V16 C6 N2'
_cell_volume   397.80915355
_cell_formula_units_Z   2
loop_
 _symmetry_equiv_pos_site_id
 _symmetry_equiv_pos_as_xyz
  1  'x, y, z'
loop_
 _atom_site_type_symbol
 _atom_site_label
 _atom_site_symmetry_multiplicity
 _atom_site_fract_x
 _atom_site_fract_y
 _atom_site_fract_z
 _atom_site_occupancy
  Al  Al0  1  0.16640502  0.33320252  0.25000000  1
  Al  Al1  1  0.33307660  0.16653829  0.75058239  1
  Al  Al2  1  0.16640502  0.83320251  0.25000000  1
  Al  Al3  1  0.33307660  0.66653830  0.74941761  1
  Al  Al4  1  0.66692341  0.33346171  0.25058239  1
  Al  Al5  1  0.83359497  0.16679748  0.75000000  1
  Al  Al6  1  0.66692341  0.83346170  0.24941761  1
  Al  Al7  1  0.83359497  0.66679749  0.75000000  1
  V  V8  1  0.16612343  0.33406975  0.91658914  1
  V  V9  1  0.33215273  0.16607635  0.41642332  1
  V  V10  1  0.33348277  0.16674137  0.08366947  1
  V  V11  1  0.16612343  0.33205369  0.58341086  1
  V  V12  1  0.16612343  0.83205368  0.91658914  1
  V  V13  1  0.33348277  0.66674138  0.41633053  1
  V  V14  1  0.33215273  0.66607636  0.08357668  1
  V  V15  1  0.16612343  0.83406974  0.58341086  1
  V  V16  1  0.66784728  0.33392365  0.91642332  1
  V  V17  1  0.83387656  0.16593025  0.41658914  1
  V  V18  1  0.83387656  0.16794631  0.08341086  1
  V  V19  1  0.66651724  0.33325863  0.58366947  1
  V  V20  1  0.66651724  0.83325862  0.91633053  1
  V  V21  1  0.83387656  0.66794632  0.41658914  1
  V  V22  1  0.83387656  0.66593026  0.08341086  1
  V  V23  1  0.66784728  0.83392364  0.58357668  1
  C  C24  1  0.00000000  0.00000000  0.00000000  1
  C  C25  1  0.00000000  0.50000000  0.50000000  1
  C  C26  1  0.50000000  0.00000000  0.00000000  1
  C  C27  1  0.50000000  0.00000000  0.50000000  1
  C  C28  1  0.50000000  0.50000000  0.00000000  1
  C  C29  1  0.50000000  0.50000000  0.50000000  1
  N  N30  1  0.00000000  0.00000000  0.50000000  1
  N  N31  1  0.00000000  0.50000000  0.00000000  1
