# generated using pymatgen
data_Al4V8CN3
_symmetry_space_group_name_H-M   'P 1'
_cell_length_a   5.71782170
_cell_length_b   5.71819648
_cell_length_c   13.03664854
_cell_angle_alpha   90.01247447
_cell_angle_beta   90.00000000
_cell_angle_gamma   119.99783206
_symmetry_Int_Tables_number   1
_chemical_formula_structural   Al4V8CN3
_chemical_formula_sum   'Al8 V16 C2 N6'
_cell_volume   369.14394102
_cell_formula_units_Z   2
loop_
 _symmetry_equiv_pos_site_id
 _symmetry_equiv_pos_as_xyz
  1  'x, y, z'
loop_
 _atom_site_type_symbol
 _atom_site_label
 _atom_site_symmetry_multiplicity
 _atom_site_fract_x
 _atom_site_fract_y
 _atom_site_fract_z
 _atom_site_occupancy
  Al  Al0  1  0.16675604  0.33351211  0.24943163  1
  Al  Al1  1  0.33339986  0.16679970  0.75013672  1
  Al  Al2  1  0.16660014  0.83320029  0.24986328  1
  Al  Al3  1  0.33324396  0.66648790  0.75056837  1
  Al  Al4  1  0.66675605  0.33351211  0.24943163  1
  Al  Al5  1  0.83339985  0.16679970  0.75013672  1
  Al  Al6  1  0.66660015  0.83320029  0.24986328  1
  Al  Al7  1  0.83324395  0.66648790  0.75056837  1
  V  V8  1  0.16661826  0.33323654  0.91384466  1
  V  V9  1  0.33406498  0.16812993  0.41361323  1
  V  V10  1  0.33332450  0.16664899  0.08624164  1
  V  V11  1  0.16709871  0.33419744  0.58650647  1
  V  V12  1  0.16667550  0.83335100  0.91375836  1
  V  V13  1  0.33290129  0.66580257  0.41349353  1
  V  V14  1  0.33338174  0.66676347  0.08615534  1
  V  V15  1  0.16593502  0.83187006  0.58638677  1
  V  V16  1  0.66661827  0.33323654  0.91384466  1
  V  V17  1  0.83406497  0.16812993  0.41361323  1
  V  V18  1  0.83332449  0.16664899  0.08624164  1
  V  V19  1  0.66709872  0.33419744  0.58650647  1
  V  V20  1  0.66667551  0.83335100  0.91375836  1
  V  V21  1  0.83290128  0.66580257  0.41349353  1
  V  V22  1  0.83338173  0.66676347  0.08615534  1
  V  V23  1  0.66593503  0.83187006  0.58638677  1
  N  N24  1  0.00000000  0.00000000  0.00000000  1
  N  N25  1  0.00000000  0.50000000  0.00000000  1
  N  N26  1  0.00000000  0.50000000  0.50000000  1
  N  N27  1  0.50000000  0.00000000  0.00000000  1
  N  N28  1  0.50000000  0.50000000  0.00000000  1
  N  N29  1  0.50000000  0.50000000  0.50000000  1
  C  C30  1  0.00000000  0.00000000  0.50000000  1
  C  C31  1  0.50000000  0.00000000  0.50000000  1
