# generated using pymatgen
data_Al4V8C3N
_symmetry_space_group_name_H-M   'P 1'
_cell_length_a   5.95849942
_cell_length_b   5.95853880
_cell_length_c   13.44256577
_cell_angle_alpha   90.00000000
_cell_angle_beta   90.00000000
_cell_angle_gamma   120.00021872
_symmetry_Int_Tables_number   1
_chemical_formula_structural   Al4V8C3N
_chemical_formula_sum   'Al8 V16 C6 N2'
_cell_volume   413.32199585
_cell_formula_units_Z   2
loop_
 _symmetry_equiv_pos_site_id
 _symmetry_equiv_pos_as_xyz
  1  'x, y, z'
loop_
 _atom_site_type_symbol
 _atom_site_label
 _atom_site_symmetry_multiplicity
 _atom_site_fract_x
 _atom_site_fract_y
 _atom_site_fract_z
 _atom_site_occupancy
  Al  Al0  1  0.16640134  0.33320068  0.25000000  1
  Al  Al1  1  0.33307304  0.16653652  0.75063707  1
  Al  Al2  1  0.16640134  0.83320067  0.25000000  1
  Al  Al3  1  0.33307304  0.66653653  0.74936293  1
  Al  Al4  1  0.66692697  0.33346348  0.25063707  1
  Al  Al5  1  0.83359865  0.16679932  0.75000000  1
  Al  Al6  1  0.66692697  0.83346347  0.24936293  1
  Al  Al7  1  0.83359865  0.66679933  0.75000000  1
  V  V8  1  0.16607806  0.33411365  0.91806587  1
  V  V9  1  0.33206798  0.16603397  0.41790633  1
  V  V10  1  0.33348321  0.16674159  0.08223905  1
  V  V11  1  0.16607806  0.33196442  0.58193413  1
  V  V12  1  0.16607806  0.83196441  0.91806587  1
  V  V13  1  0.33348321  0.66674160  0.41776095  1
  V  V14  1  0.33206798  0.66603398  0.08209367  1
  V  V15  1  0.16607806  0.83411364  0.58193413  1
  V  V16  1  0.66793203  0.33396603  0.91790633  1
  V  V17  1  0.83392193  0.16588635  0.41806587  1
  V  V18  1  0.83392193  0.16803558  0.08193413  1
  V  V19  1  0.66651680  0.33325841  0.58223905  1
  V  V20  1  0.66651680  0.83325840  0.91776095  1
  V  V21  1  0.83392193  0.66803559  0.41806587  1
  V  V22  1  0.83392193  0.66588636  0.08193413  1
  V  V23  1  0.66793203  0.83396602  0.58209367  1
  C  C24  1  0.00000000  0.00000000  0.00000000  1
  C  C25  1  0.00000000  0.50000000  0.50000000  1
  C  C26  1  0.50000000  0.00000000  0.00000000  1
  C  C27  1  0.50000000  0.00000000  0.50000000  1
  C  C28  1  0.50000000  0.50000000  0.00000000  1
  C  C29  1  0.50000000  0.50000000  0.50000000  1
  N  N30  1  0.00000000  0.00000000  0.50000000  1
  N  N31  1  0.00000000  0.50000000  0.00000000  1
