# generated using pymatgen
data_Al4V8C3N
_symmetry_space_group_name_H-M   'P 1'
_cell_length_a   5.92544383
_cell_length_b   5.92543282
_cell_length_c   13.35595928
_cell_angle_alpha   90.00000000
_cell_angle_beta   90.00000000
_cell_angle_gamma   119.99993870
_symmetry_Int_Tables_number   1
_chemical_formula_structural   Al4V8C3N
_chemical_formula_sum   'Al8 V16 C6 N2'
_cell_volume   406.11305484
_cell_formula_units_Z   2
loop_
 _symmetry_equiv_pos_site_id
 _symmetry_equiv_pos_as_xyz
  1  'x, y, z'
loop_
 _atom_site_type_symbol
 _atom_site_label
 _atom_site_symmetry_multiplicity
 _atom_site_fract_x
 _atom_site_fract_y
 _atom_site_fract_z
 _atom_site_occupancy
  Al  Al0  1  0.16639940  0.33319971  0.25000000  1
  Al  Al1  1  0.33307098  0.16653549  0.75058870  1
  Al  Al2  1  0.16639940  0.83319970  0.25000000  1
  Al  Al3  1  0.33307098  0.66653550  0.74941130  1
  Al  Al4  1  0.66692903  0.33346451  0.25058870  1
  Al  Al5  1  0.83360059  0.16680029  0.75000000  1
  Al  Al6  1  0.66692903  0.83346450  0.24941130  1
  Al  Al7  1  0.83360059  0.66680030  0.75000000  1
  V  V8  1  0.16614856  0.33404244  0.91736305  1
  V  V9  1  0.33220577  0.16610287  0.41719217  1
  V  V10  1  0.33348178  0.16674087  0.08286998  1
  V  V11  1  0.16614856  0.33210613  0.58263695  1
  V  V12  1  0.16614856  0.83210612  0.91736305  1
  V  V13  1  0.33348178  0.66674088  0.41713002  1
  V  V14  1  0.33220577  0.66610288  0.08280783  1
  V  V15  1  0.16614856  0.83404243  0.58263695  1
  V  V16  1  0.66779424  0.33389713  0.91719217  1
  V  V17  1  0.83385143  0.16595756  0.41736305  1
  V  V18  1  0.83385143  0.16789387  0.08263695  1
  V  V19  1  0.66651823  0.33325913  0.58286998  1
  V  V20  1  0.66651823  0.83325912  0.91713002  1
  V  V21  1  0.83385143  0.66789388  0.41736305  1
  V  V22  1  0.83385143  0.66595757  0.08263695  1
  V  V23  1  0.66779424  0.83389712  0.58280783  1
  C  C24  1  0.00000000  0.00000000  0.00000000  1
  C  C25  1  0.00000000  0.50000000  0.50000000  1
  C  C26  1  0.50000000  0.00000000  0.00000000  1
  C  C27  1  0.50000000  0.00000000  0.50000000  1
  C  C28  1  0.50000000  0.50000000  0.00000000  1
  C  C29  1  0.50000000  0.50000000  0.50000000  1
  N  N30  1  0.00000000  0.00000000  0.50000000  1
  N  N31  1  0.00000000  0.50000000  0.00000000  1
