# generated using pymatgen
data_Al4V8CN3
_symmetry_space_group_name_H-M   'P 1'
_cell_length_a   5.75961776
_cell_length_b   5.75978228
_cell_length_c   13.12240733
_cell_angle_alpha   90.01114965
_cell_angle_beta   90.00000000
_cell_angle_gamma   119.99905511
_symmetry_Int_Tables_number   1
_chemical_formula_structural   Al4V8CN3
_chemical_formula_sum   'Al8 V16 C2 N6'
_cell_volume   377.00577259
_cell_formula_units_Z   2
loop_
 _symmetry_equiv_pos_site_id
 _symmetry_equiv_pos_as_xyz
  1  'x, y, z'
loop_
 _atom_site_type_symbol
 _atom_site_label
 _atom_site_symmetry_multiplicity
 _atom_site_fract_x
 _atom_site_fract_y
 _atom_site_fract_z
 _atom_site_occupancy
  Al  Al0  1  0.16675573  0.33351148  0.24944084  1
  Al  Al1  1  0.33341396  0.16682790  0.75013747  1
  Al  Al2  1  0.16658604  0.83317209  0.24986253  1
  Al  Al3  1  0.33324427  0.66648853  0.75055916  1
  Al  Al4  1  0.66675574  0.33351148  0.24944084  1
  Al  Al5  1  0.83341395  0.16682790  0.75013747  1
  Al  Al6  1  0.66658605  0.83317209  0.24986253  1
  Al  Al7  1  0.83324426  0.66648853  0.75055916  1
  V  V8  1  0.16662576  0.33325155  0.91461568  1
  V  V9  1  0.33401416  0.16802830  0.41445094  1
  V  V10  1  0.33332968  0.16665934  0.08547829  1
  V  V11  1  0.16706936  0.33413874  0.58571475  1
  V  V12  1  0.16667032  0.83334065  0.91452171  1
  V  V13  1  0.33293064  0.66586127  0.41428525  1
  V  V14  1  0.33337424  0.66674846  0.08538432  1
  V  V15  1  0.16598584  0.83197169  0.58554906  1
  V  V16  1  0.66662577  0.33325155  0.91461568  1
  V  V17  1  0.83401415  0.16802830  0.41445094  1
  V  V18  1  0.83332967  0.16665934  0.08547829  1
  V  V19  1  0.66706937  0.33413874  0.58571475  1
  V  V20  1  0.66667033  0.83334065  0.91452171  1
  V  V21  1  0.83293063  0.66586127  0.41428525  1
  V  V22  1  0.83337423  0.66674846  0.08538432  1
  V  V23  1  0.66598585  0.83197169  0.58554906  1
  N  N24  1  0.00000000  0.00000000  0.00000000  1
  N  N25  1  0.00000000  0.50000000  0.00000000  1
  N  N26  1  0.00000000  0.50000000  0.50000000  1
  N  N27  1  0.50000000  0.00000000  0.00000000  1
  N  N28  1  0.50000000  0.50000000  0.00000000  1
  N  N29  1  0.50000000  0.50000000  0.50000000  1
  C  C30  1  0.00000000  0.00000000  0.50000000  1
  C  C31  1  0.50000000  0.00000000  0.50000000  1
