# generated using pymatgen
data_Al4V8CN3
_symmetry_space_group_name_H-M   'P 1'
_cell_length_a   5.67249039
_cell_length_b   5.67313696
_cell_length_c   12.96685309
_cell_angle_alpha   90.01168129
_cell_angle_beta   90.00000000
_cell_angle_gamma   119.99622992
_symmetry_Int_Tables_number   1
_chemical_formula_structural   Al4V8CN3
_chemical_formula_sum   'Al8 V16 C2 N6'
_cell_volume   361.39217476
_cell_formula_units_Z   2
loop_
 _symmetry_equiv_pos_site_id
 _symmetry_equiv_pos_as_xyz
  1  'x, y, z'
loop_
 _atom_site_type_symbol
 _atom_site_label
 _atom_site_symmetry_multiplicity
 _atom_site_fract_x
 _atom_site_fract_y
 _atom_site_fract_z
 _atom_site_occupancy
  Al  Al0  1  0.16676235  0.33352471  0.24950316  1
  Al  Al1  1  0.33338910  0.16677818  0.75009009  1
  Al  Al2  1  0.16661090  0.83322181  0.24990991  1
  Al  Al3  1  0.33323765  0.66647530  0.75049684  1
  Al  Al4  1  0.66676236  0.33352471  0.24950316  1
  Al  Al5  1  0.83338909  0.16677818  0.75009009  1
  Al  Al6  1  0.66661091  0.83322181  0.24990991  1
  Al  Al7  1  0.83323764  0.66647530  0.75049684  1
  V  V8  1  0.16661248  0.33322500  0.91310810  1
  V  V9  1  0.33400021  0.16800040  0.41288991  1
  V  V10  1  0.33331945  0.16663888  0.08698163  1
  V  V11  1  0.16703310  0.33406622  0.58722652  1
  V  V12  1  0.16668055  0.83336111  0.91301837  1
  V  V13  1  0.33296690  0.66593379  0.41277348  1
  V  V14  1  0.33338752  0.66677501  0.08689190  1
  V  V15  1  0.16599979  0.83199959  0.58711009  1
  V  V16  1  0.66661249  0.33322500  0.91310810  1
  V  V17  1  0.83400020  0.16800040  0.41288991  1
  V  V18  1  0.83331944  0.16663888  0.08698163  1
  V  V19  1  0.66703311  0.33406622  0.58722652  1
  V  V20  1  0.66668056  0.83336111  0.91301837  1
  V  V21  1  0.83296689  0.66593379  0.41277348  1
  V  V22  1  0.83338751  0.66677501  0.08689190  1
  V  V23  1  0.66599980  0.83199959  0.58711009  1
  N  N24  1  0.00000000  0.00000000  0.00000000  1
  N  N25  1  0.00000000  0.50000000  0.00000000  1
  N  N26  1  0.00000000  0.50000000  0.50000000  1
  N  N27  1  0.50000000  0.00000000  0.00000000  1
  N  N28  1  0.50000000  0.50000000  0.00000000  1
  N  N29  1  0.50000000  0.50000000  0.50000000  1
  C  C30  1  0.00000000  0.00000000  0.50000000  1
  C  C31  1  0.50000000  0.00000000  0.50000000  1
