# generated using pymatgen
data_Al4V8CN3
_symmetry_space_group_name_H-M   'P 1'
_cell_length_a   5.80089725
_cell_length_b   5.80120079
_cell_length_c   13.20946277
_cell_angle_alpha   90.01510466
_cell_angle_beta   90.00000000
_cell_angle_gamma   119.99826920
_symmetry_Int_Tables_number   1
_chemical_formula_structural   Al4V8CN3
_chemical_formula_sum   'Al8 V16 C2 N6'
_cell_volume   384.97844298
_cell_formula_units_Z   2
loop_
 _symmetry_equiv_pos_site_id
 _symmetry_equiv_pos_as_xyz
  1  'x, y, z'
loop_
 _atom_site_type_symbol
 _atom_site_label
 _atom_site_symmetry_multiplicity
 _atom_site_fract_x
 _atom_site_fract_y
 _atom_site_fract_z
 _atom_site_occupancy
  Al  Al0  1  0.16676302  0.33352605  0.24940242  1
  Al  Al1  1  0.33340780  0.16681558  0.75015061  1
  Al  Al2  1  0.16659220  0.83318441  0.24984939  1
  Al  Al3  1  0.33323698  0.66647396  0.75059758  1
  Al  Al4  1  0.66676303  0.33352605  0.24940242  1
  Al  Al5  1  0.83340779  0.16681558  0.75015061  1
  Al  Al6  1  0.66659221  0.83318441  0.24984939  1
  Al  Al7  1  0.83323697  0.66647396  0.75059758  1
  V  V8  1  0.16662132  0.33324267  0.91540430  1
  V  V9  1  0.33403146  0.16806290  0.41530734  1
  V  V10  1  0.33332596  0.16665190  0.08468971  1
  V  V11  1  0.16704267  0.33408536  0.58488663  1
  V  V12  1  0.16667404  0.83334809  0.91531029  1
  V  V13  1  0.33295733  0.66591465  0.41511337  1
  V  V14  1  0.33337868  0.66675734  0.08459570  1
  V  V15  1  0.16596854  0.83193709  0.58469266  1
  V  V16  1  0.66662133  0.33324267  0.91540430  1
  V  V17  1  0.83403145  0.16806290  0.41530734  1
  V  V18  1  0.83332595  0.16665190  0.08468971  1
  V  V19  1  0.66704268  0.33408536  0.58488663  1
  V  V20  1  0.66667405  0.83334809  0.91531029  1
  V  V21  1  0.83295732  0.66591465  0.41511337  1
  V  V22  1  0.83337867  0.66675734  0.08459570  1
  V  V23  1  0.66596855  0.83193709  0.58469266  1
  N  N24  1  0.00000000  0.00000000  0.00000000  1
  N  N25  1  0.00000000  0.50000000  0.00000000  1
  N  N26  1  0.00000000  0.50000000  0.50000000  1
  N  N27  1  0.50000000  0.00000000  0.00000000  1
  N  N28  1  0.50000000  0.50000000  0.00000000  1
  N  N29  1  0.50000000  0.50000000  0.50000000  1
  C  C30  1  0.00000000  0.00000000  0.50000000  1
  C  C31  1  0.50000000  0.00000000  0.50000000  1
