# generated using pymatgen
data_HfTaTiNbMoC5
_symmetry_space_group_name_H-M   'P 1'
_cell_length_a   7.07138232
_cell_length_b   7.10981086
_cell_length_c   4.43782224
_cell_angle_alpha   90.00000000
_cell_angle_beta   90.00000000
_cell_angle_gamma   89.63671284
_symmetry_Int_Tables_number   1
_chemical_formula_structural   HfTaTiNbMoC5
_chemical_formula_sum   'Hf2 Ta2 Ti2 Nb2 Mo2 C10'
_cell_volume   223.11231269
_cell_formula_units_Z   2
loop_
 _symmetry_equiv_pos_site_id
 _symmetry_equiv_pos_as_xyz
  1  'x, y, z'
loop_
 _atom_site_type_symbol
 _atom_site_label
 _atom_site_symmetry_multiplicity
 _atom_site_fract_x
 _atom_site_fract_y
 _atom_site_fract_z
 _atom_site_occupancy
  C  C0  1  0.29579009  0.90311588  0.00000000  1
  C  C1  1  0.49900651  0.48987288  0.00000000  1
  C  C2  1  0.39900363  0.19581727  0.50000000  1
  C  C3  1  0.09910191  0.29726332  0.00000000  1
  C  C4  1  0.00097351  0.00003573  0.50000000  1
  C  C5  1  0.69849568  0.10640636  0.00000000  1
  C  C6  1  0.59938779  0.80230564  0.50000000  1
  C  C7  1  0.19703110  0.60227106  0.50000000  1
  C  C8  1  0.90536401  0.70596411  0.00000000  1
  C  C9  1  0.80783110  0.40686135  0.50000000  1
  Hf  Hf10  1  0.50247547  0.49891143  0.50000000  1
  Hf  Hf11  1  0.60031540  0.80811764  0.00000000  1
  Nb  Nb12  1  0.20010274  0.59688161  0.00000000  1
  Nb  Nb13  1  0.10289508  0.29331480  0.50000000  1
  Ta  Ta14  1  0.90112883  0.70580740  0.50000000  1
  Ta  Ta15  1  0.00682336  0.00448838  0.00000000  1
  Ti  Ti16  1  0.30593748  0.90271435  0.50000000  1
  Ti  Ti17  1  0.40088195  0.19804216  0.00000000  1
  Mo  Mo18  1  0.68850607  0.10358294  0.50000000  1
  Mo  Mo19  1  0.78894831  0.37822568  0.00000000  1
