# generated using pymatgen
data_Al4V8C3N
_symmetry_space_group_name_H-M   'P 1'
_cell_length_a   5.99354003
_cell_length_b   5.99358257
_cell_length_c   13.52029040
_cell_angle_alpha   90.00000000
_cell_angle_beta   90.00000000
_cell_angle_gamma   120.00023485
_symmetry_Int_Tables_number   1
_chemical_formula_structural   Al4V8C3N
_chemical_formula_sum   'Al8 V16 C6 N2'
_cell_volume   420.61574590
_cell_formula_units_Z   2
loop_
 _symmetry_equiv_pos_site_id
 _symmetry_equiv_pos_as_xyz
  1  'x, y, z'
loop_
 _atom_site_type_symbol
 _atom_site_label
 _atom_site_symmetry_multiplicity
 _atom_site_fract_x
 _atom_site_fract_y
 _atom_site_fract_z
 _atom_site_occupancy
  Al  Al0  1  0.16639154  0.33319578  0.25000000  1
  Al  Al1  1  0.33306317  0.16653158  0.75064877  1
  Al  Al2  1  0.16639154  0.83319577  0.25000000  1
  Al  Al3  1  0.33306317  0.66653159  0.74935123  1
  Al  Al4  1  0.66693684  0.33346842  0.25064877  1
  Al  Al5  1  0.83360845  0.16680422  0.75000000  1
  Al  Al6  1  0.66693684  0.83346841  0.24935123  1
  Al  Al7  1  0.83360845  0.66680423  0.75000000  1
  V  V8  1  0.16608055  0.33410459  0.91875177  1
  V  V9  1  0.33207582  0.16603789  0.41859056  1
  V  V10  1  0.33347949  0.16673973  0.08155037  1
  V  V11  1  0.16608055  0.33197596  0.58124823  1
  V  V12  1  0.16608055  0.83197595  0.91875177  1
  V  V13  1  0.33347949  0.66673974  0.41844963  1
  V  V14  1  0.33207582  0.66603790  0.08140944  1
  V  V15  1  0.16608055  0.83410458  0.58124823  1
  V  V16  1  0.66792419  0.33396211  0.91859056  1
  V  V17  1  0.83391944  0.16589541  0.41875177  1
  V  V18  1  0.83391944  0.16802404  0.08124823  1
  V  V19  1  0.66652052  0.33326027  0.58155037  1
  V  V20  1  0.66652052  0.83326026  0.91844963  1
  V  V21  1  0.83391944  0.66802405  0.41875177  1
  V  V22  1  0.83391944  0.66589542  0.08124823  1
  V  V23  1  0.66792419  0.83396210  0.58140944  1
  C  C24  1  0.00000000  0.00000000  0.00000000  1
  C  C25  1  0.00000000  0.50000000  0.50000000  1
  C  C26  1  0.50000000  0.00000000  0.00000000  1
  C  C27  1  0.50000000  0.00000000  0.50000000  1
  C  C28  1  0.50000000  0.50000000  0.00000000  1
  C  C29  1  0.50000000  0.50000000  0.50000000  1
  N  N30  1  0.00000000  0.00000000  0.50000000  1
  N  N31  1  0.00000000  0.50000000  0.00000000  1
