# generated using pymatgen
data_Al2V4CN
_symmetry_space_group_name_H-M   'P 1'
_cell_length_a   5.86129716
_cell_length_b   2.93047838
_cell_length_c   13.26588120
_cell_angle_alpha   90.00000000
_cell_angle_beta   90.00000000
_cell_angle_gamma   119.99807897
_symmetry_Int_Tables_number   1
_chemical_formula_structural   Al2V4CN
_chemical_formula_sum   'Al4 V8 C2 N2'
_cell_volume   197.33649224
_cell_formula_units_Z   2
loop_
 _symmetry_equiv_pos_site_id
 _symmetry_equiv_pos_as_xyz
  1  'x, y, z'
loop_
 _atom_site_type_symbol
 _atom_site_label
 _atom_site_symmetry_multiplicity
 _atom_site_fract_x
 _atom_site_fract_y
 _atom_site_fract_z
 _atom_site_occupancy
  Al  Al0  1  0.16665697  0.66665698  0.25052486  1
  Al  Al1  1  0.33334303  0.33334302  0.75052486  1
  Al  Al2  1  0.66665698  0.66665698  0.24947514  1
  Al  Al3  1  0.83334302  0.33334302  0.74947514  1
  V  V4  1  0.16591116  0.66591117  0.91613816  1
  V  V5  1  0.33408884  0.33408883  0.41613816  1
  V  V6  1  0.33152331  0.33152330  0.08361675  1
  V  V7  1  0.16847669  0.66847670  0.58361675  1
  V  V8  1  0.66847670  0.66847670  0.91638325  1
  V  V9  1  0.83152330  0.33152330  0.41638325  1
  V  V10  1  0.83408883  0.33408883  0.08386184  1
  V  V11  1  0.66591117  0.66591117  0.58386184  1
  N  N12  1  0.00000000  0.00000000  0.00000000  1
  N  N13  1  0.50000000  0.00000000  0.50000000  1
  C  C14  1  0.00000000  0.00000000  0.50000000  1
  C  C15  1  0.50000000  0.00000000  0.00000000  1
