# generated using pymatgen
data_Al2V4CN
_symmetry_space_group_name_H-M   'P 1'
_cell_length_a   5.74255104
_cell_length_b   2.87067510
_cell_length_c   13.01898149
_cell_angle_alpha   90.00000000
_cell_angle_beta   90.00000000
_cell_angle_gamma   119.99308306
_symmetry_Int_Tables_number   1
_chemical_formula_structural   Al2V4CN
_chemical_formula_sum   'Al4 V8 C2 N2'
_cell_volume   185.87749576
_cell_formula_units_Z   2
loop_
 _symmetry_equiv_pos_site_id
 _symmetry_equiv_pos_as_xyz
  1  'x, y, z'
loop_
 _atom_site_type_symbol
 _atom_site_label
 _atom_site_symmetry_multiplicity
 _atom_site_fract_x
 _atom_site_fract_y
 _atom_site_fract_z
 _atom_site_occupancy
  Al  Al0  1  0.16663438  0.66663439  0.25047477  1
  Al  Al1  1  0.33336562  0.33336561  0.75047477  1
  Al  Al2  1  0.66663439  0.66663439  0.24952523  1
  Al  Al3  1  0.83336561  0.33336561  0.74952523  1
  V  V4  1  0.16593578  0.66593579  0.91387263  1
  V  V5  1  0.33406422  0.33406421  0.41387263  1
  V  V6  1  0.33164778  0.33164777  0.08590152  1
  V  V7  1  0.16835222  0.66835223  0.58590152  1
  V  V8  1  0.66835223  0.66835223  0.91409848  1
  V  V9  1  0.83164777  0.33164777  0.41409848  1
  V  V10  1  0.83406421  0.33406421  0.08612737  1
  V  V11  1  0.66593579  0.66593579  0.58612737  1
  N  N12  1  -0.00000000  0.00000000  0.00000000  1
  N  N13  1  0.50000000  0.00000000  0.50000000  1
  C  C14  1  -0.00000000  0.00000000  0.50000000  1
  C  C15  1  0.50000000  0.00000000  0.00000000  1
