# generated using pymatgen
data_Al2V4CN
_symmetry_space_group_name_H-M   'P 1'
_cell_length_a   5.90316580
_cell_length_b   2.95158766
_cell_length_c   13.35083776
_cell_angle_alpha   90.00000000
_cell_angle_beta   90.00000000
_cell_angle_gamma   120.00005336
_symmetry_Int_Tables_number   1
_chemical_formula_structural   Al2V4CN
_chemical_formula_sum   'Al4 V8 C2 N2'
_cell_volume   201.45571105
_cell_formula_units_Z   2
loop_
 _symmetry_equiv_pos_site_id
 _symmetry_equiv_pos_as_xyz
  1  'x, y, z'
loop_
 _atom_site_type_symbol
 _atom_site_label
 _atom_site_symmetry_multiplicity
 _atom_site_fract_x
 _atom_site_fract_y
 _atom_site_fract_z
 _atom_site_occupancy
  Al  Al0  1  0.16666364  0.66666365  0.25054143  1
  Al  Al1  1  0.33333636  0.33333635  0.75054143  1
  Al  Al2  1  0.66666365  0.66666365  0.24945857  1
  Al  Al3  1  0.83333635  0.33333635  0.74945857  1
  V  V4  1  0.16591954  0.66591955  0.91696565  1
  V  V5  1  0.33408046  0.33408045  0.41696565  1
  V  V6  1  0.33149548  0.33149547  0.08277933  1
  V  V7  1  0.16850452  0.66850453  0.58277933  1
  V  V8  1  0.66850453  0.66850453  0.91722067  1
  V  V9  1  0.83149547  0.33149547  0.41722067  1
  V  V10  1  0.83408045  0.33408045  0.08303435  1
  V  V11  1  0.66591955  0.66591955  0.58303435  1
  N  N12  1  0.00000000  0.00000000  0.00000000  1
  N  N13  1  0.50000000  0.00000000  0.50000000  1
  C  C14  1  0.00000000  0.00000000  0.50000000  1
  C  C15  1  0.50000000  0.00000000  0.00000000  1
