# generated using pymatgen
data_Al4V8CN3
_symmetry_space_group_name_H-M   'P 1'
_cell_length_a   5.95968487
_cell_length_b   5.95882439
_cell_length_c   13.47390534
_cell_angle_alpha   90.00931642
_cell_angle_beta   90.00000000
_cell_angle_gamma   120.00477691
_symmetry_Int_Tables_number   1
_chemical_formula_structural   Al4V8CN3
_chemical_formula_sum   'Al8 V16 C2 N6'
_cell_volume   414.36884228
_cell_formula_units_Z   2
loop_
 _symmetry_equiv_pos_site_id
 _symmetry_equiv_pos_as_xyz
  1  'x, y, z'
loop_
 _atom_site_type_symbol
 _atom_site_label
 _atom_site_symmetry_multiplicity
 _atom_site_fract_x
 _atom_site_fract_y
 _atom_site_fract_z
 _atom_site_occupancy
  Al  Al0  1  0.16678085  0.33356171  0.24909792  1
  Al  Al1  1  0.33340685  0.16681368  0.75024429  1
  Al  Al2  1  0.16659315  0.83318631  0.24975571  1
  Al  Al3  1  0.33321915  0.66643830  0.75090208  1
  Al  Al4  1  0.66678086  0.33356171  0.24909792  1
  Al  Al5  1  0.83340684  0.16681368  0.75024429  1
  Al  Al6  1  0.66659316  0.83318631  0.24975571  1
  Al  Al7  1  0.83321914  0.66643830  0.75090208  1
  V  V8  1  0.16662916  0.33325835  0.91884535  1
  V  V9  1  0.33416336  0.16832669  0.41822045  1
  V  V10  1  0.33334543  0.16669085  0.08126551  1
  V  V11  1  0.16713269  0.33426541  0.58193322  1
  V  V12  1  0.16665457  0.83330914  0.91873449  1
  V  V13  1  0.33286731  0.66573460  0.41806678  1
  V  V14  1  0.33337084  0.66674166  0.08115465  1
  V  V15  1  0.16583664  0.83167330  0.58177955  1
  V  V16  1  0.66662917  0.33325835  0.91884535  1
  V  V17  1  0.83416335  0.16832669  0.41822045  1
  V  V18  1  0.83334542  0.16669085  0.08126551  1
  V  V19  1  0.66713270  0.33426541  0.58193322  1
  V  V20  1  0.66665458  0.83330914  0.91873449  1
  V  V21  1  0.83286730  0.66573460  0.41806678  1
  V  V22  1  0.83337083  0.66674166  0.08115465  1
  V  V23  1  0.66583665  0.83167330  0.58177955  1
  N  N24  1  0.00000000  0.00000000  0.00000000  1
  N  N25  1  0.00000000  0.50000000  0.00000000  1
  N  N26  1  0.00000000  0.50000000  0.50000000  1
  N  N27  1  0.50000000  0.00000000  0.00000000  1
  N  N28  1  0.50000000  0.50000000  0.00000000  1
  N  N29  1  0.50000000  0.50000000  0.50000000  1
  C  C30  1  0.00000000  0.00000000  0.50000000  1
  C  C31  1  0.50000000  0.00000000  0.50000000  1
