# generated using pymatgen
data_Al2V4CN
_symmetry_space_group_name_H-M   'P 1'
_cell_length_a   5.82553474
_cell_length_b   2.91244397
_cell_length_c   13.19250907
_cell_angle_alpha   90.00000000
_cell_angle_beta   90.00000000
_cell_angle_gamma   119.99632762
_symmetry_Int_Tables_number   1
_chemical_formula_structural   Al2V4CN
_chemical_formula_sum   'Al4 V8 C2 N2'
_cell_volume   193.85074718
_cell_formula_units_Z   2
loop_
 _symmetry_equiv_pos_site_id
 _symmetry_equiv_pos_as_xyz
  1  'x, y, z'
loop_
 _atom_site_type_symbol
 _atom_site_label
 _atom_site_symmetry_multiplicity
 _atom_site_fract_x
 _atom_site_fract_y
 _atom_site_fract_z
 _atom_site_occupancy
  Al  Al0  1  0.16665090  0.66665091  0.25050989  1
  Al  Al1  1  0.33334910  0.33334909  0.75050989  1
  Al  Al2  1  0.66665091  0.66665091  0.24949011  1
  Al  Al3  1  0.83334909  0.33334909  0.74949011  1
  V  V4  1  0.16591719  0.66591720  0.91544101  1
  V  V5  1  0.33408281  0.33408280  0.41544101  1
  V  V6  1  0.33156004  0.33156003  0.08431853  1
  V  V7  1  0.16843996  0.66843997  0.58431853  1
  V  V8  1  0.66843997  0.66843997  0.91568147  1
  V  V9  1  0.83156003  0.33156003  0.41568147  1
  V  V10  1  0.83408280  0.33408280  0.08455899  1
  V  V11  1  0.66591720  0.66591720  0.58455899  1
  N  N12  1  -0.00000000  0.00000000  0.00000000  1
  N  N13  1  0.50000000  0.00000000  0.50000000  1
  C  C14  1  -0.00000000  0.00000000  0.50000000  1
  C  C15  1  0.50000000  0.00000000  0.00000000  1
