# generated using pymatgen
data_Al4V8CN3
_symmetry_space_group_name_H-M   'P 1'
_cell_length_a   5.88549426
_cell_length_b   5.88517026
_cell_length_c   13.33779051
_cell_angle_alpha   90.01076610
_cell_angle_beta   90.00000000
_cell_angle_gamma   120.00182116
_symmetry_Int_Tables_number   1
_chemical_formula_structural   Al4V8CN3
_chemical_formula_sum   'Al8 V16 C2 N6'
_cell_volume   400.08154229
_cell_formula_units_Z   2
loop_
 _symmetry_equiv_pos_site_id
 _symmetry_equiv_pos_as_xyz
  1  'x, y, z'
loop_
 _atom_site_type_symbol
 _atom_site_label
 _atom_site_symmetry_multiplicity
 _atom_site_fract_x
 _atom_site_fract_y
 _atom_site_fract_z
 _atom_site_occupancy
  Al  Al0  1  0.16677621  0.33355244  0.24916623  1
  Al  Al1  1  0.33339562  0.16679122  0.75024519  1
  Al  Al2  1  0.16660438  0.83320877  0.24975481  1
  Al  Al3  1  0.33322379  0.66644757  0.75083377  1
  Al  Al4  1  0.66677622  0.33355244  0.24916623  1
  Al  Al5  1  0.83339561  0.16679122  0.75024519  1
  Al  Al6  1  0.66660439  0.83320877  0.24975481  1
  Al  Al7  1  0.83322378  0.66644757  0.75083377  1
  V  V8  1  0.16662266  0.33324535  0.91716483  1
  V  V9  1  0.33412008  0.16824015  0.41676407  1
  V  V10  1  0.33333882  0.16667763  0.08292904  1
  V  V11  1  0.16709704  0.33419410  0.58341064  1
  V  V12  1  0.16666118  0.83332236  0.91707096  1
  V  V13  1  0.33290296  0.66580591  0.41658936  1
  V  V14  1  0.33337734  0.66675466  0.08283517  1
  V  V15  1  0.16587992  0.83175984  0.58323593  1
  V  V16  1  0.66662267  0.33324535  0.91716483  1
  V  V17  1  0.83412007  0.16824015  0.41676407  1
  V  V18  1  0.83333881  0.16667763  0.08292904  1
  V  V19  1  0.66709705  0.33419410  0.58341064  1
  V  V20  1  0.66666119  0.83332236  0.91707096  1
  V  V21  1  0.83290295  0.66580591  0.41658936  1
  V  V22  1  0.83337733  0.66675466  0.08283517  1
  V  V23  1  0.66587993  0.83175984  0.58323593  1
  N  N24  1  0.00000000  0.00000000  0.00000000  1
  N  N25  1  0.00000000  0.50000000  0.00000000  1
  N  N26  1  0.00000000  0.50000000  0.50000000  1
  N  N27  1  0.50000000  0.00000000  0.00000000  1
  N  N28  1  0.50000000  0.50000000  0.00000000  1
  N  N29  1  0.50000000  0.50000000  0.50000000  1
  C  C30  1  0.00000000  0.00000000  0.50000000  1
  C  C31  1  0.50000000  0.00000000  0.50000000  1
