# generated using pymatgen
data_Al4V8CN3
_symmetry_space_group_name_H-M   'P 1'
_cell_length_a   5.92288188
_cell_length_b   5.92227868
_cell_length_c   13.40455171
_cell_angle_alpha   90.00998917
_cell_angle_beta   90.00000000
_cell_angle_gamma   120.00336934
_symmetry_Int_Tables_number   1
_chemical_formula_structural   Al4V8CN3
_chemical_formula_sum   'Al8 V16 C2 N6'
_cell_volume   407.18341686
_cell_formula_units_Z   2
loop_
 _symmetry_equiv_pos_site_id
 _symmetry_equiv_pos_as_xyz
  1  'x, y, z'
loop_
 _atom_site_type_symbol
 _atom_site_label
 _atom_site_symmetry_multiplicity
 _atom_site_fract_x
 _atom_site_fract_y
 _atom_site_fract_z
 _atom_site_occupancy
  Al  Al0  1  0.16677855  0.33355713  0.24912866  1
  Al  Al1  1  0.33340121  0.16680239  0.75024985  1
  Al  Al2  1  0.16659879  0.83319760  0.24975015  1
  Al  Al3  1  0.33322145  0.66644288  0.75087134  1
  Al  Al4  1  0.66677856  0.33355713  0.24912866  1
  Al  Al5  1  0.83340120  0.16680239  0.75024985  1
  Al  Al6  1  0.66659880  0.83319760  0.24975015  1
  Al  Al7  1  0.83322144  0.66644288  0.75087134  1
  V  V8  1  0.16662719  0.33325441  0.91799541  1
  V  V9  1  0.33414146  0.16828291  0.41748338  1
  V  V10  1  0.33334357  0.16668712  0.08210314  1
  V  V11  1  0.16711441  0.33422883  0.58267949  1
  V  V12  1  0.16665643  0.83331287  0.91789686  1
  V  V13  1  0.33288559  0.66577118  0.41732051  1
  V  V14  1  0.33337281  0.66674560  0.08200459  1
  V  V15  1  0.16585854  0.83171708  0.58251662  1
  V  V16  1  0.66662720  0.33325441  0.91799541  1
  V  V17  1  0.83414145  0.16828291  0.41748338  1
  V  V18  1  0.83334356  0.16668712  0.08210314  1
  V  V19  1  0.66711442  0.33422883  0.58267949  1
  V  V20  1  0.66665644  0.83331287  0.91789686  1
  V  V21  1  0.83288558  0.66577118  0.41732051  1
  V  V22  1  0.83337280  0.66674560  0.08200459  1
  V  V23  1  0.66585855  0.83171708  0.58251662  1
  N  N24  1  0.00000000  0.00000000  0.00000000  1
  N  N25  1  0.00000000  0.50000000  0.00000000  1
  N  N26  1  0.00000000  0.50000000  0.50000000  1
  N  N27  1  0.50000000  0.00000000  0.00000000  1
  N  N28  1  0.50000000  0.50000000  0.00000000  1
  N  N29  1  0.50000000  0.50000000  0.50000000  1
  C  C30  1  0.00000000  0.00000000  0.50000000  1
  C  C31  1  0.50000000  0.00000000  0.50000000  1
