# generated using pymatgen
data_Al2V4CN
_symmetry_space_group_name_H-M   'P 1'
_cell_length_a   5.70125925
_cell_length_b   2.84991489
_cell_length_c   12.93124115
_cell_angle_alpha   90.00000000
_cell_angle_beta   90.00000000
_cell_angle_gamma   119.99170656
_symmetry_Int_Tables_number   1
_chemical_formula_structural   Al2V4CN
_chemical_formula_sum   'Al4 V8 C2 N2'
_cell_volume   181.97419686
_cell_formula_units_Z   2
loop_
 _symmetry_equiv_pos_site_id
 _symmetry_equiv_pos_as_xyz
  1  'x, y, z'
loop_
 _atom_site_type_symbol
 _atom_site_label
 _atom_site_symmetry_multiplicity
 _atom_site_fract_x
 _atom_site_fract_y
 _atom_site_fract_z
 _atom_site_occupancy
  Al  Al0  1  0.16662523  0.66662524  0.25045608  1
  Al  Al1  1  0.33337477  0.33337476  0.75045608  1
  Al  Al2  1  0.66662524  0.66662524  0.24954392  1
  Al  Al3  1  0.83337476  0.33337476  0.74954392  1
  V  V4  1  0.16595157  0.66595158  0.91312215  1
  V  V5  1  0.33404843  0.33404842  0.41312215  1
  V  V6  1  0.33170057  0.33170056  0.08665939  1
  V  V7  1  0.16829943  0.66829944  0.58665939  1
  V  V8  1  0.66829944  0.66829944  0.91334061  1
  V  V9  1  0.83170056  0.33170056  0.41334061  1
  V  V10  1  0.83404842  0.33404842  0.08687785  1
  V  V11  1  0.66595158  0.66595158  0.58687785  1
  N  N12  1  -0.00000000  -0.00000000  -0.00000000  1
  N  N13  1  0.50000000  -0.00000000  0.50000000  1
  C  C14  1  -0.00000000  -0.00000000  0.50000000  1
  C  C15  1  0.50000000  -0.00000000  -0.00000000  1
