# generated using pymatgen
data_Ti6Al2CN3
_symmetry_space_group_name_H-M   'P 1'
_cell_length_a   6.11933287
_cell_length_b   6.11918861
_cell_length_c   18.74729243
_cell_angle_alpha   90.00640337
_cell_angle_beta   89.99679840
_cell_angle_gamma   119.99921998
_symmetry_Int_Tables_number   1
_chemical_formula_structural   Ti6Al2CN3
_chemical_formula_sum   'Ti24 Al8 C4 N12'
_cell_volume   607.95371091
_cell_formula_units_Z   4
loop_
 _symmetry_equiv_pos_site_id
 _symmetry_equiv_pos_as_xyz
  1  'x, y, z'
loop_
 _atom_site_type_symbol
 _atom_site_label
 _atom_site_symmetry_multiplicity
 _atom_site_fract_x
 _atom_site_fract_y
 _atom_site_fract_z
 _atom_site_occupancy
  Ti  Ti0  1  0.16541573  0.33128452  0.87298776  1
  Ti  Ti1  1  0.33326428  0.16647832  0.37342867  1
  Ti  Ti2  1  0.33455098  0.16872414  0.12680426  1
  Ti  Ti3  1  0.16867009  0.33420977  0.62701374  1
  Ti  Ti4  1  0.00059221  0.99929868  0.00034664  1
  Ti  Ti5  1  0.99874392  0.99993423  0.50002065  1
  Ti  Ti6  1  0.16570173  0.83431578  0.87357212  1
  Ti  Ti7  1  0.33130614  0.66588125  0.37304411  1
  Ti  Ti8  1  0.33433022  0.66578113  0.12664173  1
  Ti  Ti9  1  0.16675308  0.83348188  0.62650267  1
  Ti  Ti10  1  0.00125735  0.50118784  0.00002682  1
  Ti  Ti11  1  0.99940603  0.49870508  0.50034074  1
  Ti  Ti12  1  0.66673455  0.33321057  0.87343638  1
  Ti  Ti13  1  0.83429791  0.16861208  0.37356859  1
  Ti  Ti14  1  0.83324612  0.16672988  0.12650027  1
  Ti  Ti15  1  0.66544919  0.33417365  0.62680735  1
  Ti  Ti16  1  0.49880693  0.99868934  0.00000615  1
  Ti  Ti17  1  0.50119490  0.99988660  0.49999989  1
  Ti  Ti18  1  0.66869673  0.83457726  0.87304644  1
  Ti  Ti19  1  0.83458277  0.66587004  0.37298440  1
  Ti  Ti20  1  0.83133318  0.66554141  0.12701167  1
  Ti  Ti21  1  0.66566792  0.83144639  0.62664249  1
  Ti  Ti22  1  0.49936384  0.50074062  0.99963789  1
  Ti  Ti23  1  0.50063584  0.50137277  0.49962896  1
  Al  Al24  1  0.00033692  0.00093615  0.25000254  1
  Al  Al25  1  0.00032303  0.99937535  0.74965218  1
  Al  Al26  1  0.99967565  0.49905166  0.24965039  1
  Al  Al27  1  0.99966198  0.50059868  0.75000113  1
  Al  Al28  1  0.50053544  0.00075621  0.25000104  1
  Al  Al29  1  0.49946608  0.00022126  0.75000224  1
  Al  Al30  1  0.49949865  0.49927283  0.25034582  1
  Al  Al31  1  0.50050318  0.49977534  0.75034458  1
  N  N32  1  0.16734181  0.33400352  0.43199164  1
  N  N33  1  0.33332173  0.16732317  0.93200132  1
  N  N34  1  0.33351508  0.16710137  0.56824045  1
  N  N35  1  0.16667942  0.33274592  0.06800790  1
  N  N36  1  0.16643943  0.83286046  0.43173527  1
  N  N37  1  0.33272062  0.66601841  0.56803407  1
  N  N38  1  0.66667689  0.33400151  0.43200000  1
  N  N39  1  0.83355924  0.16641799  0.93173614  1
  N  N40  1  0.66648652  0.33358644  0.06824003  1
  N  N41  1  0.83265818  0.66666408  0.93199227  1
  N  N42  1  0.83332019  0.66606306  0.56800783  1
  N  N43  1  0.66727690  0.83329720  0.06803391  1
  C  C44  1  0.33366484  0.66630605  0.93157092  1
  C  C45  1  0.16632965  0.83358812  0.06841977  1
  C  C46  1  0.83367081  0.16725940  0.56841890  1
  C  C47  1  0.66633618  0.83264258  0.43156928  1
