# generated using pymatgen
data_Ti6Al2CN3
_symmetry_space_group_name_H-M   'P 1'
_cell_length_a   6.19390001
_cell_length_b   6.19383824
_cell_length_c   19.01201464
_cell_angle_alpha   90.00888684
_cell_angle_beta   89.99555663
_cell_angle_gamma   119.99967004
_symmetry_Int_Tables_number   1
_chemical_formula_structural   Ti6Al2CN3
_chemical_formula_sum   'Ti24 Al8 C4 N12'
_cell_volume   631.66128549
_cell_formula_units_Z   4
loop_
 _symmetry_equiv_pos_site_id
 _symmetry_equiv_pos_as_xyz
  1  'x, y, z'
loop_
 _atom_site_type_symbol
 _atom_site_label
 _atom_site_symmetry_multiplicity
 _atom_site_fract_x
 _atom_site_fract_y
 _atom_site_fract_z
 _atom_site_occupancy
  Ti  Ti0  1  0.16542090  0.33129975  0.87462249  1
  Ti  Ti1  1  0.33327248  0.16650246  0.37509130  1
  Ti  Ti2  1  0.33456387  0.16873551  0.12517996  1
  Ti  Ti3  1  0.16866477  0.33418783  0.62537269  1
  Ti  Ti4  1  0.00071401  0.99916442  0.00043471  1
  Ti  Ti5  1  0.99834955  0.99992374  0.50002962  1
  Ti  Ti6  1  0.16569648  0.83429954  0.87519176  1
  Ti  Ti7  1  0.33132275  0.66588367  0.37466740  1
  Ti  Ti8  1  0.33431310  0.66577261  0.12500966  1
  Ti  Ti9  1  0.16673769  0.83348707  0.62486694  1
  Ti  Ti10  1  0.00165279  0.50157517  0.00003170  1
  Ti  Ti11  1  0.99928685  0.49845238  0.50043129  1
  Ti  Ti12  1  0.66672655  0.33323219  0.87508236  1
  Ti  Ti13  1  0.83430420  0.16860543  0.37519639  1
  Ti  Ti14  1  0.83326289  0.16674909  0.12486773  1
  Ti  Ti15  1  0.66543591  0.33417336  0.62517695  1
  Ti  Ti16  1  0.49841864  0.99829101  0.00000505  1
  Ti  Ti17  1  0.50157976  0.99987347  0.50000276  1
  Ti  Ti18  1  0.66867554  0.83455941  0.87466303  1
  Ti  Ti19  1  0.83457987  0.66587764  0.37462669  1
  Ti  Ti20  1  0.83133571  0.66552250  0.12537443  1
  Ti  Ti21  1  0.66568647  0.83146020  0.62500734  1
  Ti  Ti22  1  0.49923615  0.50087688  0.99953721  1
  Ti  Ti23  1  0.50076368  0.50164074  0.49953495  1
  Al  Al24  1  0.00035232  0.00096545  0.25000156  1
  Al  Al25  1  0.00033901  0.99936063  0.74964537  1
  Al  Al26  1  0.99965985  0.49901809  0.24964386  1
  Al  Al27  1  0.99964450  0.50060857  0.75000001  1
  Al  Al28  1  0.50055313  0.00078500  0.25000303  1
  Al  Al29  1  0.49945058  0.00023532  0.75000199  1
  Al  Al30  1  0.49948455  0.49924336  0.25035544  1
  Al  Al31  1  0.50051500  0.49975724  0.75035389  1
  N  N32  1  0.16735936  0.33402691  0.43229812  1
  N  N33  1  0.33331541  0.16733617  0.93229761  1
  N  N34  1  0.33350930  0.16708191  0.56796593  1
  N  N35  1  0.16668411  0.33271934  0.06770151  1
  N  N36  1  0.16645255  0.83287521  0.43201580  1
  N  N37  1  0.33269676  0.66599908  0.56772968  1
  N  N38  1  0.66668574  0.33402185  0.43230267  1
  N  N39  1  0.83354650  0.16642429  0.93201168  1
  N  N40  1  0.66649013  0.33357282  0.06796206  1
  N  N41  1  0.83264061  0.66666587  0.93229347  1
  N  N42  1  0.83331747  0.66603601  0.56770583  1
  N  N43  1  0.66730201  0.83330055  0.06772502  1
  C  C44  1  0.33365415  0.66631265  0.93203732  1
  C  C45  1  0.16634001  0.83359399  0.06795292  1
  C  C46  1  0.83366020  0.16725461  0.56795322  1
  C  C47  1  0.66634614  0.83265904  0.43203761  1
