# generated using pymatgen
data_Ti6Al2CN3
_symmetry_space_group_name_H-M   'P 1'
_cell_length_a   6.22763834
_cell_length_b   6.22760656
_cell_length_c   19.13838798
_cell_angle_alpha   90.01037090
_cell_angle_beta   89.99481456
_cell_angle_gamma   119.99983099
_symmetry_Int_Tables_number   1
_chemical_formula_structural   Ti6Al2CN3
_chemical_formula_sum   'Ti24 Al8 C4 N12'
_cell_volume   642.80799521
_cell_formula_units_Z   4
loop_
 _symmetry_equiv_pos_site_id
 _symmetry_equiv_pos_as_xyz
  1  'x, y, z'
loop_
 _atom_site_type_symbol
 _atom_site_label
 _atom_site_symmetry_multiplicity
 _atom_site_fract_x
 _atom_site_fract_y
 _atom_site_fract_z
 _atom_site_occupancy
  Ti  Ti0  1  0.16543986  0.33125492  0.87550599  1
  Ti  Ti1  1  0.33331330  0.16655970  0.37602739  1
  Ti  Ti2  1  0.33456722  0.16878523  0.12430341  1
  Ti  Ti3  1  0.16868341  0.33420917  0.62448899  1
  Ti  Ti4  1  0.00078406  0.99911324  0.00046007  1
  Ti  Ti5  1  0.99816339  0.99992218  0.50002369  1
  Ti  Ti6  1  0.16564704  0.83434986  0.87609573  1
  Ti  Ti7  1  0.33129167  0.66582482  0.37555117  1
  Ti  Ti8  1  0.33433914  0.66572794  0.12409805  1
  Ti  Ti9  1  0.16670409  0.83345576  0.62392066  1
  Ti  Ti10  1  0.00183556  0.50176305  0.00003081  1
  Ti  Ti11  1  0.99922882  0.49834281  0.50045130  1
  Ti  Ti12  1  0.66668489  0.33324580  0.87602131  1
  Ti  Ti13  1  0.83435028  0.16869267  0.37610050  1
  Ti  Ti14  1  0.83329628  0.16675507  0.12392422  1
  Ti  Ti15  1  0.66543605  0.33421640  0.62430656  1
  Ti  Ti16  1  0.49822247  0.99810870  0.00001104  1
  Ti  Ti17  1  0.50176298  0.99987119  0.50000385  1
  Ti  Ti18  1  0.66872053  0.83453759  0.87554269  1
  Ti  Ti19  1  0.83455764  0.66582576  0.37551141  1
  Ti  Ti20  1  0.83130374  0.66551588  0.12448949  1
  Ti  Ti21  1  0.66566420  0.83140096  0.62409265  1
  Ti  Ti22  1  0.49917538  0.50092398  0.99952594  1
  Ti  Ti23  1  0.50082163  0.50175613  0.49952083  1
  Al  Al24  1  0.00037241  0.00090568  0.24998987  1
  Al  Al25  1  0.00035146  0.99943606  0.74963551  1
  Al  Al26  1  0.99964764  0.49908162  0.24963352  1
  Al  Al27  1  0.99962454  0.50052931  0.74998808  1
  Al  Al28  1  0.50050978  0.00078403  0.25000093  1
  Al  Al29  1  0.49949446  0.00027794  0.75000014  1
  Al  Al30  1  0.49953384  0.49924474  0.25036861  1
  Al  Al31  1  0.50046685  0.49971003  0.75036832  1
  N  N32  1  0.16738375  0.33400733  0.43253459  1
  N  N33  1  0.33334338  0.16736773  0.93254460  1
  N  N34  1  0.33348826  0.16706302  0.56770955  1
  N  N35  1  0.16668763  0.33272535  0.06746943  1
  N  N36  1  0.16646375  0.83291965  0.43227471  1
  N  N37  1  0.33268968  0.66599430  0.56748412  1
  N  N38  1  0.66665585  0.33402309  0.43254832  1
  N  N39  1  0.83353671  0.16645557  0.93227194  1
  N  N40  1  0.66650809  0.33357493  0.06771529  1
  N  N41  1  0.83261636  0.66662443  0.93253134  1
  N  N42  1  0.83331622  0.66604307  0.56746441  1
  N  N43  1  0.66731102  0.83330359  0.06748777  1
  C  C44  1  0.33364764  0.66628096  0.93241732  1
  C  C45  1  0.16633496  0.83360272  0.06756800  1
  C  C46  1  0.83367008  0.16725779  0.56756679  1
  C  C47  1  0.66635202  0.83262823  0.43241908  1
