# generated using pymatgen
data_Ti6Al2CN3
_symmetry_space_group_name_H-M   'P 1'
_cell_length_a   5.96944473
_cell_length_b   5.96921691
_cell_length_c   18.16709425
_cell_angle_alpha   90.00299528
_cell_angle_beta   89.99850241
_cell_angle_gamma   119.99873723
_symmetry_Int_Tables_number   1
_chemical_formula_structural   Ti6Al2CN3
_chemical_formula_sum   'Ti24 Al8 C4 N12'
_cell_volume   560.62559645
_cell_formula_units_Z   4
loop_
 _symmetry_equiv_pos_site_id
 _symmetry_equiv_pos_as_xyz
  1  'x, y, z'
loop_
 _atom_site_type_symbol
 _atom_site_label
 _atom_site_symmetry_multiplicity
 _atom_site_fract_x
 _atom_site_fract_y
 _atom_site_fract_z
 _atom_site_occupancy
  Ti  Ti0  1  0.16534829  0.33111407  0.86999712  1
  Ti  Ti1  1  0.33326124  0.16644274  0.37045709  1
  Ti  Ti2  1  0.33459519  0.16883645  0.12979558  1
  Ti  Ti3  1  0.16881338  0.33430036  0.63000287  1
  Ti  Ti4  1  0.00037324  0.99954410  0.00018445  1
  Ti  Ti5  1  0.99944275  0.99995599  0.50000085  1
  Ti  Ti6  1  0.16564600  0.83440860  0.87059354  1
  Ti  Ti7  1  0.33114021  0.66580013  0.37007732  1
  Ti  Ti8  1  0.33441412  0.66571428  0.12962026  1
  Ti  Ti9  1  0.16677551  0.83348212  0.62945406  1
  Ti  Ti10  1  0.00055725  0.50051323  0.00000085  1
  Ti  Ti11  1  0.99962676  0.49917085  0.50018445  1
  Ti  Ti12  1  0.66673877  0.33318151  0.87045709  1
  Ti  Ti13  1  0.83435399  0.16876259  0.37059354  1
  Ti  Ti14  1  0.83322448  0.16670659  0.12945406  1
  Ti  Ti15  1  0.66540482  0.33424129  0.62979558  1
  Ti  Ti16  1  0.49947183  0.99938352  0.99999816  1
  Ti  Ti17  1  0.50052817  0.99991169  0.49999816  1
  Ti  Ti18  1  0.66885980  0.83465992  0.87007732  1
  Ti  Ti19  1  0.83465170  0.66576577  0.36999712  1
  Ti  Ti20  1  0.83118661  0.66548697  0.13000287  1
  Ti  Ti21  1  0.66558589  0.83130017  0.62962026  1
  Ti  Ti22  1  0.49958494  0.50049209  0.99980667  1
  Ti  Ti23  1  0.50041506  0.50090715  0.49980667  1
  Al  Al24  1  0.00028036  0.00083596  0.25001314  1
  Al  Al25  1  0.00027710  0.99944636  0.74967805  1
  Al  Al26  1  0.99972290  0.49916926  0.24967805  1
  Al  Al27  1  0.99971964  0.50055559  0.75001314  1
  Al  Al28  1  0.50047597  0.00066132  0.25000424  1
  Al  Al29  1  0.49952403  0.00018535  0.75000424  1
  Al  Al30  1  0.49955003  0.49935863  0.25031693  1
  Al  Al31  1  0.50044997  0.49980860  0.75031693  1
  N  N32  1  0.16735183  0.33395672  0.43133603  1
  N  N33  1  0.33337160  0.16734731  0.93135755  1
  N  N34  1  0.33351047  0.16711952  0.56886106  1
  N  N35  1  0.16665220  0.33276918  0.06866292  1
  N  N36  1  0.16642788  0.83286445  0.43110399  1
  N  N37  1  0.33273806  0.66604801  0.56869721  1
  N  N38  1  0.66662841  0.33397573  0.43135755  1
  N  N39  1  0.83357211  0.16643655  0.93110399  1
  N  N40  1  0.66648954  0.33360906  0.06886106  1
  N  N41  1  0.83264816  0.66660488  0.93133603  1
  N  N42  1  0.83334779  0.66611697  0.56866292  1
  N  N43  1  0.66726195  0.83330996  0.06869721  1
  C  C44  1  0.33367237  0.66628840  0.93064570  1
  C  C45  1  0.16631021  0.83357208  0.06933522  1
  C  C46  1  0.83368978  0.16726186  0.56933522  1
  C  C47  1  0.66632764  0.83261603  0.43064570  1
