# generated using pymatgen
data_Al2V4CN
_symmetry_space_group_name_H-M   'P 1'
_cell_length_a   5.93840034
_cell_length_b   2.96996319
_cell_length_c   13.42478038
_cell_angle_alpha   90.00000000
_cell_angle_beta   90.00000000
_cell_angle_gamma   120.00850127
_symmetry_Int_Tables_number   1
_chemical_formula_structural   Al2V4CN
_chemical_formula_sum   'Al4 V8 C2 N2'
_cell_volume   205.03176523
_cell_formula_units_Z   2
loop_
 _symmetry_equiv_pos_site_id
 _symmetry_equiv_pos_as_xyz
  1  'x, y, z'
loop_
 _atom_site_type_symbol
 _atom_site_label
 _atom_site_symmetry_multiplicity
 _atom_site_fract_x
 _atom_site_fract_y
 _atom_site_fract_z
 _atom_site_occupancy
  Al  Al0  1  0.16668442  0.66668443  0.25057861  1
  Al  Al1  1  0.33331558  0.33331557  0.75057861  1
  Al  Al2  1  0.66668443  0.66668443  0.24942139  1
  Al  Al3  1  0.83331557  0.33331557  0.74942139  1
  V  V4  1  0.16605040  0.66605041  0.91764759  1
  V  V5  1  0.33394960  0.33394959  0.41764759  1
  V  V6  1  0.33142308  0.33142307  0.08215927  1
  V  V7  1  0.16857692  0.66857693  0.58215927  1
  V  V8  1  0.66857693  0.66857693  0.91784073  1
  V  V9  1  0.83142307  0.33142307  0.41784073  1
  V  V10  1  0.83394959  0.33394959  0.08235241  1
  V  V11  1  0.66605041  0.66605041  0.58235241  1
  N  N12  1  0.00000000  0.00000000  0.00000000  1
  N  N13  1  0.50000000  0.00000000  0.50000000  1
  C  C14  1  0.00000000  0.00000000  0.50000000  1
  C  C15  1  0.50000000  0.00000000  0.00000000  1
