# generated using pymatgen
data_Al2V4CN
_symmetry_space_group_name_H-M   'P 1'
_cell_length_a   5.97279747
_cell_length_b   2.98790433
_cell_length_c   13.50255848
_cell_angle_alpha   90.00000000
_cell_angle_beta   90.00000000
_cell_angle_gamma   120.01667855
_symmetry_Int_Tables_number   1
_chemical_formula_structural   Al2V4CN
_chemical_formula_sum   'Al4 V8 C2 N2'
_cell_volume   208.64989033
_cell_formula_units_Z   2
loop_
 _symmetry_equiv_pos_site_id
 _symmetry_equiv_pos_as_xyz
  1  'x, y, z'
loop_
 _atom_site_type_symbol
 _atom_site_label
 _atom_site_symmetry_multiplicity
 _atom_site_fract_x
 _atom_site_fract_y
 _atom_site_fract_z
 _atom_site_occupancy
  Al  Al0  1  0.16666872  0.66666873  0.25064530  1
  Al  Al1  1  0.33333128  0.33333127  0.75064530  1
  Al  Al2  1  0.66666873  0.66666873  0.24935470  1
  Al  Al3  1  0.83333127  0.33333127  0.74935470  1
  V  V4  1  0.16589068  0.66589069  0.91839153  1
  V  V5  1  0.33410932  0.33410931  0.41839153  1
  V  V6  1  0.33130287  0.33130286  0.08143965  1
  V  V7  1  0.16869713  0.66869714  0.58143965  1
  V  V8  1  0.66869714  0.66869714  0.91856035  1
  V  V9  1  0.83130286  0.33130286  0.41856035  1
  V  V10  1  0.83410931  0.33410931  0.08160847  1
  V  V11  1  0.66589069  0.66589069  0.58160847  1
  N  N12  1  0.00000000  0.00000000  0.00000000  1
  N  N13  1  0.50000000  0.00000000  0.50000000  1
  C  C14  1  0.00000000  0.00000000  0.50000000  1
  C  C15  1  0.50000000  0.00000000  0.00000000  1
