# generated using pymatgen
data_Ti6Al2CN3
_symmetry_space_group_name_H-M   'P 1'
_cell_length_a   6.15994371
_cell_length_b   6.15982629
_cell_length_c   18.88704850
_cell_angle_alpha   90.00712752
_cell_angle_beta   89.99643631
_cell_angle_gamma   119.99936929
_symmetry_Int_Tables_number   1
_chemical_formula_structural   Ti6Al2CN3
_chemical_formula_sum   'Ti24 Al8 C4 N12'
_cell_volume   620.64418716
_cell_formula_units_Z   4
loop_
 _symmetry_equiv_pos_site_id
 _symmetry_equiv_pos_as_xyz
  1  'x, y, z'
loop_
 _atom_site_type_symbol
 _atom_site_label
 _atom_site_symmetry_multiplicity
 _atom_site_fract_x
 _atom_site_fract_y
 _atom_site_fract_z
 _atom_site_occupancy
  Ti  Ti0  1  0.16541819  0.33129228  0.87385060  1
  Ti  Ti1  1  0.33326850  0.16649426  0.37429578  1
  Ti  Ti2  1  0.33455740  0.16873133  0.12594710  1
  Ti  Ti3  1  0.16866709  0.33419954  0.62615314  1
  Ti  Ti4  1  0.00065483  0.99922994  0.00039399  1
  Ti  Ti5  1  0.99853415  0.99992790  0.50002604  1
  Ti  Ti6  1  0.16569721  0.83430854  0.87442801  1
  Ti  Ti7  1  0.33131758  0.66588122  0.37389389  1
  Ti  Ti8  1  0.33432258  0.66577541  0.12578212  1
  Ti  Ti9  1  0.16674465  0.83348370  0.62564516  1
  Ti  Ti10  1  0.00146276  0.50139075  0.00003198  1
  Ti  Ti11  1  0.99934466  0.49857269  0.50038773  1
  Ti  Ti12  1  0.66673160  0.33322191  0.87430345  1
  Ti  Ti13  1  0.83430289  0.16860906  0.37442205  1
  Ti  Ti14  1  0.83325576  0.16673922  0.12564296  1
  Ti  Ti15  1  0.66544374  0.33417547  0.62595161  1
  Ti  Ti16  1  0.49860349  0.99848131  0.00000740  1
  Ti  Ti17  1  0.50139876  0.99987699  0.50000122  1
  Ti  Ti18  1  0.66868529  0.83456688  0.87389980  1
  Ti  Ti19  1  0.83457947  0.66587361  0.37384590  1
  Ti  Ti20  1  0.83133323  0.66553151  0.12614954  1
  Ti  Ti21  1  0.66567668  0.83145082  0.62578573  1
  Ti  Ti22  1  0.49929688  0.50081137  0.99958717  1
  Ti  Ti23  1  0.50070259  0.50151433  0.49958027  1
  Al  Al24  1  0.00034705  0.00095111  0.24999843  1
  Al  Al25  1  0.00033347  0.99936650  0.74964619  1
  Al  Al26  1  0.99966661  0.49903509  0.24964551  1
  Al  Al27  1  0.99965613  0.50060782  0.74999866  1
  Al  Al28  1  0.50054314  0.00077279  0.24999893  1
  Al  Al29  1  0.49945379  0.00022582  0.74999828  1
  Al  Al30  1  0.49949160  0.49925485  0.25034847  1
  Al  Al31  1  0.50050797  0.49976534  0.75034784  1
  N  N32  1  0.16735272  0.33401740  0.43215167  1
  N  N33  1  0.33332138  0.16733214  0.93215958  1
  N  N34  1  0.33351246  0.16709173  0.56809360  1
  N  N35  1  0.16667952  0.33273005  0.06784787  1
  N  N36  1  0.16644916  0.83286851  0.43188397  1
  N  N37  1  0.33270837  0.66600838  0.56787283  1
  N  N38  1  0.66668020  0.33401059  0.43215902  1
  N  N39  1  0.83355074  0.16642166  0.93188519  1
  N  N40  1  0.66648861  0.33357799  0.06809360  1
  N  N41  1  0.83264633  0.66666198  0.93215300  1
  N  N42  1  0.83331906  0.66604944  0.56784771  1
  N  N43  1  0.66729187  0.83330167  0.06787315  1
  C  C44  1  0.33365839  0.66630995  0.93181750  1
  C  C45  1  0.16633497  0.83359132  0.06817619  1
  C  C46  1  0.83366520  0.16725663  0.56817537  1
  C  C47  1  0.66634127  0.83265120  0.43181481  1
