# generated using pymatgen
data_Ti6Al2CN3
_symmetry_space_group_name_H-M   'P 1'
_cell_length_a   6.08507990
_cell_length_b   6.08490372
_cell_length_c   18.62412045
_cell_angle_alpha   90.00638699
_cell_angle_beta   89.99680661
_cell_angle_gamma   119.99904201
_symmetry_Int_Tables_number   1
_chemical_formula_structural   Ti6Al2CN3
_chemical_formula_sum   'Ti24 Al8 C4 N12'
_cell_volume   597.21483734
_cell_formula_units_Z   4
loop_
 _symmetry_equiv_pos_site_id
 _symmetry_equiv_pos_as_xyz
  1  'x, y, z'
loop_
 _atom_site_type_symbol
 _atom_site_label
 _atom_site_symmetry_multiplicity
 _atom_site_fract_x
 _atom_site_fract_y
 _atom_site_fract_z
 _atom_site_occupancy
  Ti  Ti0  1  0.16542074  0.33129004  0.87227491  1
  Ti  Ti1  1  0.33325857  0.16646004  0.37271489  1
  Ti  Ti2  1  0.33453658  0.16870535  0.12751516  1
  Ti  Ti3  1  0.16866060  0.33421546  0.62772402  1
  Ti  Ti4  1  0.00053831  0.99936204  0.00030970  1
  Ti  Ti5  1  0.99891676  0.99993575  0.50002206  1
  Ti  Ti6  1  0.16571637  0.83431106  0.87286125  1
  Ti  Ti7  1  0.33131060  0.66588678  0.37233933  1
  Ti  Ti8  1  0.33433067  0.66579171  0.12735388  1
  Ti  Ti9  1  0.16676459  0.83348350  0.62721409  1
  Ti  Ti10  1  0.00108324  0.50101898  0.00002206  1
  Ti  Ti11  1  0.99946169  0.49882372  0.50030970  1
  Ti  Ti12  1  0.66674144  0.33320150  0.87271489  1
  Ti  Ti13  1  0.83428362  0.16859467  0.37286125  1
  Ti  Ti14  1  0.83323540  0.16671888  0.12721409  1
  Ti  Ti15  1  0.66546343  0.33416878  0.62751516  1
  Ti  Ti16  1  0.49897424  0.99886420  0.00000339  1
  Ti  Ti17  1  0.50102576  0.99988995  0.50000339  1
  Ti  Ti18  1  0.66868941  0.83457618  0.87233933  1
  Ti  Ti19  1  0.83457925  0.66586929  0.37227491  1
  Ti  Ti20  1  0.83133939  0.66555485  0.12772402  1
  Ti  Ti21  1  0.66566934  0.83146105  0.62735388  1
  Ti  Ti22  1  0.49941917  0.50067719  0.99967037  1
  Ti  Ti23  1  0.50058083  0.50125804  0.49967037  1
  Al  Al24  1  0.00032127  0.00091114  0.25000568  1
  Al  Al25  1  0.00031312  0.99939131  0.74965250  1
  Al  Al26  1  0.99968688  0.49907819  0.24965250  1
  Al  Al27  1  0.99967873  0.50058987  0.75000568  1
  Al  Al28  1  0.50051914  0.00072985  0.25000081  1
  Al  Al29  1  0.49948086  0.00021072  0.75000081  1
  Al  Al30  1  0.49950799  0.49929584  0.25034235  1
  Al  Al31  1  0.50049201  0.49978786  0.75034235  1
  N  N32  1  0.16733377  0.33399612  0.43185069  1
  N  N33  1  0.33332671  0.16731859  0.93186083  1
  N  N34  1  0.33351777  0.16710784  0.56837527  1
  N  N35  1  0.16667410  0.33275414  0.06814787  1
  N  N36  1  0.16643549  0.83285147  0.43159835  1
  N  N37  1  0.33273376  0.66603220  0.56817468  1
  N  N38  1  0.66667330  0.33399190  0.43186083  1
  N  N39  1  0.83356450  0.16641597  0.93159835  1
  N  N40  1  0.66648224  0.33359009  0.06837527  1
  N  N41  1  0.83266622  0.66666235  0.93185069  1
  N  N42  1  0.83332589  0.66608004  0.56814787  1
  N  N43  1  0.66726625  0.83329845  0.06817468  1
  C  C44  1  0.33366697  0.66630496  0.93135246  1
  C  C45  1  0.16632623  0.83358514  0.06863548  1
  C  C46  1  0.83367376  0.16725889  0.56863548  1
  C  C47  1  0.66633304  0.83263798  0.43135246  1
