# generated using pymatgen
data_Ti6Al2CN3
_symmetry_space_group_name_H-M   'P 1'
_cell_length_a   6.01154686
_cell_length_b   6.01134471
_cell_length_c   18.29770216
_cell_angle_alpha   90.00477083
_cell_angle_beta   89.99761466
_cell_angle_gamma   119.99888736
_symmetry_Int_Tables_number   1
_chemical_formula_structural   Ti6Al2CN3
_chemical_formula_sum   'Ti24 Al8 C4 N12'
_cell_volume   572.65086762
_cell_formula_units_Z   4
loop_
 _symmetry_equiv_pos_site_id
 _symmetry_equiv_pos_as_xyz
  1  'x, y, z'
loop_
 _atom_site_type_symbol
 _atom_site_label
 _atom_site_symmetry_multiplicity
 _atom_site_fract_x
 _atom_site_fract_y
 _atom_site_fract_z
 _atom_site_occupancy
  Ti  Ti0  1  0.16548652  0.33130433  0.87075616  1
  Ti  Ti1  1  0.33328155  0.16650569  0.37117030  1
  Ti  Ti2  1  0.33447278  0.16868349  0.12903295  1
  Ti  Ti3  1  0.16865182  0.33425802  0.62924161  1
  Ti  Ti4  1  0.00044147  0.99947656  0.00020822  1
  Ti  Ti5  1  0.99924921  0.99995974  0.50000362  1
  Ti  Ti6  1  0.16570730  0.83432423  0.87136538  1
  Ti  Ti7  1  0.33131178  0.66583180  0.37083513  1
  Ti  Ti8  1  0.33434282  0.66577054  0.12885028  1
  Ti  Ti9  1  0.16674584  0.83343336  0.62874324  1
  Ti  Ti10  1  0.00075079  0.50071052  0.00000362  1
  Ti  Ti11  1  0.99955853  0.49903508  0.50020822  1
  Ti  Ti12  1  0.66671846  0.33322415  0.87117030  1
  Ti  Ti13  1  0.83429269  0.16861692  0.37136538  1
  Ti  Ti14  1  0.83325415  0.16668750  0.12874324  1
  Ti  Ti15  1  0.66552723  0.33421073  0.62903295  1
  Ti  Ti16  1  0.49928070  0.99919991  0.99999989  1
  Ti  Ti17  1  0.50071930  0.99991921  0.49999989  1
  Ti  Ti18  1  0.66868823  0.83452001  0.87083513  1
  Ti  Ti19  1  0.83451347  0.66581780  0.37075616  1
  Ti  Ti20  1  0.83134817  0.66560619  0.12924161  1
  Ti  Ti21  1  0.66565719  0.83142773  0.62885028  1
  Ti  Ti22  1  0.49953043  0.50054650  0.99978398  1
  Ti  Ti23  1  0.50046957  0.50101607  0.49978398  1
  Al  Al24  1  0.00028392  0.00079915  0.25000638  1
  Al  Al25  1  0.00028235  0.99948012  0.74966834  1
  Al  Al26  1  0.99971765  0.49919776  0.24966834  1
  Al  Al27  1  0.99971608  0.50051524  0.75000638  1
  Al  Al28  1  0.50044807  0.00064921  0.25000286  1
  Al  Al29  1  0.49955193  0.00020113  0.75000286  1
  Al  Al30  1  0.49956855  0.49936967  0.25033204  1
  Al  Al31  1  0.50043145  0.49980112  0.75033204  1
  N  N32  1  0.16736643  0.33398842  0.43150964  1
  N  N33  1  0.33335941  0.16736851  0.93153626  1
  N  N34  1  0.33353587  0.16715821  0.56867488  1
  N  N35  1  0.16666940  0.33273677  0.06848916  1
  N  N36  1  0.16640877  0.83283411  0.43129923  1
  N  N37  1  0.33270923  0.66600723  0.56851660  1
  N  N38  1  0.66664060  0.33400912  0.43153626  1
  N  N39  1  0.83359122  0.16642532  0.93129923  1
  N  N40  1  0.66646414  0.33362235  0.06867488  1
  N  N41  1  0.83263356  0.66662198  0.93150964  1
  N  N42  1  0.83333059  0.66606737  0.56848916  1
  N  N43  1  0.66729078  0.83329802  0.06851660  1
  C  C44  1  0.33368172  0.66625472  0.93083890  1
  C  C45  1  0.16628111  0.83360826  0.06913495  1
  C  C46  1  0.83371888  0.16732714  0.56913495  1
  C  C47  1  0.66631829  0.83257301  0.43083890  1
