# generated using pymatgen
data_Ti6Al2CN3
_symmetry_space_group_name_H-M   'P 1'
_cell_length_a   6.05129108
_cell_length_b   6.05110198
_cell_length_c   18.44270014
_cell_angle_alpha   90.00367483
_cell_angle_beta   89.99816264
_cell_angle_gamma   119.99896600
_symmetry_Int_Tables_number   1
_chemical_formula_structural   Ti6Al2CN3
_chemical_formula_sum   'Ti24 Al8 C4 N12'
_cell_volume   584.84687983
_cell_formula_units_Z   4
loop_
 _symmetry_equiv_pos_site_id
 _symmetry_equiv_pos_as_xyz
  1  'x, y, z'
loop_
 _atom_site_type_symbol
 _atom_site_label
 _atom_site_symmetry_multiplicity
 _atom_site_fract_x
 _atom_site_fract_y
 _atom_site_fract_z
 _atom_site_occupancy
  Ti  Ti0  1  0.16544924  0.33129780  0.87150702  1
  Ti  Ti1  1  0.33323851  0.16646347  0.37189875  1
  Ti  Ti2  1  0.33449961  0.16869376  0.12830157  1
  Ti  Ti3  1  0.16868244  0.33425153  0.62849423  1
  Ti  Ti4  1  0.00048462  0.99942039  0.00027625  1
  Ti  Ti5  1  0.99908049  0.99993873  0.50002229  1
  Ti  Ti6  1  0.16573774  0.83428165  0.87203770  1
  Ti  Ti7  1  0.33131023  0.66586200  0.37154933  1
  Ti  Ti8  1  0.33431458  0.66579041  0.12815332  1
  Ti  Ti9  1  0.16676920  0.83347792  0.62805830  1
  Ti  Ti10  1  0.00091951  0.50085823  0.00002229  1
  Ti  Ti11  1  0.99951538  0.49893576  0.50027625  1
  Ti  Ti12  1  0.66676150  0.33322497  0.87189875  1
  Ti  Ti13  1  0.83426225  0.16854390  0.37203770  1
  Ti  Ti14  1  0.83323079  0.16670870  0.12805830  1
  Ti  Ti15  1  0.66550040  0.33419417  0.62830157  1
  Ti  Ti16  1  0.49913842  0.99903316  0.00000145  1
  Ti  Ti17  1  0.50086158  0.99989474  0.50000145  1
  Ti  Ti18  1  0.66868978  0.83455177  0.87154933  1
  Ti  Ti19  1  0.83455075  0.66584855  0.37150702  1
  Ti  Ti20  1  0.83131755  0.66556908  0.12849423  1
  Ti  Ti21  1  0.66568543  0.83147584  0.62815332  1
  Ti  Ti22  1  0.49946893  0.50062287  0.99970010  1
  Ti  Ti23  1  0.50053107  0.50115394  0.49970010  1
  Al  Al24  1  0.00023869  0.00073864  0.25001068  1
  Al  Al25  1  0.00024168  0.99948830  0.74967396  1
  Al  Al26  1  0.99975832  0.49924663  0.24967396  1
  Al  Al27  1  0.99976131  0.50049996  0.75001068  1
  Al  Al28  1  0.50042552  0.00056719  0.25000084  1
  Al  Al29  1  0.49957448  0.00014167  0.75000084  1
  Al  Al30  1  0.49959023  0.49945018  0.25032029  1
  Al  Al31  1  0.50040977  0.49985995  0.75032029  1
  N  N32  1  0.16732080  0.33395805  0.43170235  1
  N  N33  1  0.33336677  0.16730633  0.93170011  1
  N  N34  1  0.33350441  0.16706200  0.56854664  1
  N  N35  1  0.16661292  0.33274176  0.06829635  1
  N  N36  1  0.16645863  0.83288235  0.43143118  1
  N  N37  1  0.33273193  0.66609161  0.56831675  1
  N  N38  1  0.66663324  0.33393957  0.43170011  1
  N  N39  1  0.83354136  0.16642370  0.93143118  1
  N  N40  1  0.66649560  0.33355762  0.06854664  1
  N  N41  1  0.83267919  0.66663723  0.93170235  1
  N  N42  1  0.83338707  0.66612883  0.56829635  1
  N  N43  1  0.66726808  0.83335969  0.06831675  1
  C  C44  1  0.33368546  0.66633122  0.93114075  1
  C  C45  1  0.16633524  0.83359183  0.06885981  1
  C  C46  1  0.83366475  0.16725659  0.56885981  1
  C  C47  1  0.66631455  0.83264576  0.43114075  1
