# generated using pymatgen
data_Ti6Al2C3N
_symmetry_space_group_name_H-M   'P 1'
_cell_length_a   6.28231637
_cell_length_b   6.28302942
_cell_length_c   19.11647148
_cell_angle_alpha   90.00000001
_cell_angle_beta   89.99689865
_cell_angle_gamma   120.00375458
_symmetry_Int_Tables_number   1
_chemical_formula_structural   Ti6Al2C3N
_chemical_formula_sum   'Ti24 Al8 C12 N4'
_cell_volume   653.44769236
_cell_formula_units_Z   4
loop_
 _symmetry_equiv_pos_site_id
 _symmetry_equiv_pos_as_xyz
  1  'x, y, z'
loop_
 _atom_site_type_symbol
 _atom_site_label
 _atom_site_symmetry_multiplicity
 _atom_site_fract_x
 _atom_site_fract_y
 _atom_site_fract_z
 _atom_site_occupancy
  Ti  Ti0  1  0.16395250  0.33197626  0.87501755  1
  Ti  Ti1  1  0.33203901  0.16793390  0.37660861  1
  Ti  Ti2  1  0.33308415  0.16663480  0.12360322  1
  Ti  Ti3  1  0.16662088  0.33331045  0.62562479  1
  Ti  Ti4  1  0.00091474  0.00047751  0.99962991  1
  Ti  Ti5  1  0.00007716  0.00004090  0.50037381  1
  Ti  Ti6  1  0.16391552  0.83195776  0.87516814  1
  Ti  Ti7  1  0.33203901  0.66410511  0.37660861  1
  Ti  Ti8  1  0.33308415  0.66644934  0.12360322  1
  Ti  Ti9  1  0.16412672  0.83206336  0.62420642  1
  Ti  Ti10  1  0.00091474  0.50043725  0.99962991  1
  Ti  Ti11  1  0.00007716  0.50003626  0.50037381  1
  Ti  Ti12  1  0.66850668  0.33428552  0.87602285  1
  Ti  Ti13  1  0.83594753  0.16797377  0.37661841  1
  Ti  Ti14  1  0.83379675  0.16689838  0.12402276  1
  Ti  Ti15  1  0.66798784  0.33587867  0.62405466  1
  Ti  Ti16  1  0.49959247  0.99979624  0.99939567  1
  Ti  Ti17  1  0.49996052  0.99998026  0.50033759  1
  Ti  Ti18  1  0.66850668  0.83422116  0.87602285  1
  Ti  Ti19  1  0.83336805  0.66668403  0.37519499  1
  Ti  Ti20  1  0.83367509  0.66683754  0.12414116  1
  Ti  Ti21  1  0.66798784  0.83210919  0.62405466  1
  Ti  Ti22  1  0.49960493  0.49980247  0.99937535  1
  Ti  Ti23  1  0.49988654  0.49994328  0.50034988  1
  Al  Al24  1  0.00081025  0.00162153  0.25035646  1
  Al  Al25  1  0.99781117  0.99779776  0.75029372  1
  Al  Al26  1  0.00081025  0.49918871  0.25035646  1
  Al  Al27  1  0.99781117  0.50001340  0.75029372  1
  Al  Al28  1  0.50005515  0.00002757  0.25080113  1
  Al  Al29  1  0.50140166  0.00070082  0.75026206  1
  Al  Al30  1  0.49841209  0.49920604  0.25026865  1
  Al  Al31  1  0.50282327  0.50141164  0.75072970  1
  N  N32  1  0.16670456  0.33335229  0.43218781  1
  N  N33  1  0.83345456  0.16672727  0.93094395  1
  N  N34  1  0.83340497  0.66670249  0.93102146  1
  N  N35  1  0.83340156  0.66670077  0.56839586  1
  C  C36  1  0.33313995  0.16661500  0.93105979  1
  C  C37  1  0.33299304  0.16689520  0.56863464  1
  C  C38  1  0.16617346  0.33308675  0.06732986  1
  C  C39  1  0.16617379  0.83308689  0.43204910  1
  C  C40  1  0.33313995  0.66652494  0.93105979  1
  C  C41  1  0.33299304  0.66609782  0.56863464  1
  C  C42  1  0.16611930  0.83305964  0.06742738  1
  C  C43  1  0.66693143  0.33385693  0.43205204  1
  C  C44  1  0.83393325  0.16696662  0.56854805  1
  C  C45  1  0.66745202  0.33376524  0.06760143  1
  C  C46  1  0.66693143  0.83307451  0.43205204  1
  C  C47  1  0.66745202  0.83368680  0.06760143  1
