# generated using pymatgen
data_Ti6Al2C3N
_symmetry_space_group_name_H-M   'P 1'
_cell_length_a   6.13755105
_cell_length_b   6.13809454
_cell_length_c   18.54480384
_cell_angle_alpha   90.00000001
_cell_angle_beta   89.99644182
_cell_angle_gamma   120.00292901
_symmetry_Int_Tables_number   1
_chemical_formula_structural   Ti6Al2C3N
_chemical_formula_sum   'Ti24 Al8 C12 N4'
_cell_volume   605.01862747
_cell_formula_units_Z   4
loop_
 _symmetry_equiv_pos_site_id
 _symmetry_equiv_pos_as_xyz
  1  'x, y, z'
loop_
 _atom_site_type_symbol
 _atom_site_label
 _atom_site_symmetry_multiplicity
 _atom_site_fract_x
 _atom_site_fract_y
 _atom_site_fract_z
 _atom_site_occupancy
  Ti  Ti0  1  0.16393967  0.33196985  0.87199512  1
  Ti  Ti1  1  0.33198171  0.16798532  0.37352395  1
  Ti  Ti2  1  0.33303556  0.16656235  0.12673468  1
  Ti  Ti3  1  0.16667643  0.33333822  0.62867590  1
  Ti  Ti4  1  0.00034803  0.00018677  0.99954312  1
  Ti  Ti5  1  0.00007960  0.00003794  0.50031602  1
  Ti  Ti6  1  0.16396438  0.83198219  0.87221894  1
  Ti  Ti7  1  0.33198171  0.66399638  0.37352395  1
  Ti  Ti8  1  0.33303556  0.66647320  0.12673468  1
  Ti  Ti9  1  0.16404562  0.83202281  0.62721268  1
  Ti  Ti10  1  0.00034803  0.50016127  0.99954312  1
  Ti  Ti11  1  0.00007960  0.50004167  0.50031602  1
  Ti  Ti12  1  0.66860378  0.33429654  0.87312512  1
  Ti  Ti13  1  0.83603364  0.16801682  0.37353459  1
  Ti  Ti14  1  0.83380691  0.16690345  0.12716510  1
  Ti  Ti15  1  0.66800709  0.33599014  0.62699328  1
  Ti  Ti16  1  0.50009653  0.00004827  0.99940707  1
  Ti  Ti17  1  0.49994805  0.99997403  0.50028265  1
  Ti  Ti18  1  0.66860378  0.83430724  0.87312512  1
  Ti  Ti19  1  0.83336082  0.66668042  0.37205358  1
  Ti  Ti20  1  0.83374179  0.66687090  0.12735725  1
  Ti  Ti21  1  0.66800709  0.83201695  0.62699328  1
  Ti  Ti22  1  0.50012448  0.50006224  0.99939423  1
  Ti  Ti23  1  0.49988914  0.49994458  0.50029589  1
  Al  Al24  1  0.00090573  0.00172273  0.25024918  1
  Al  Al25  1  0.99780327  0.99776153  0.75018916  1
  Al  Al26  1  0.00090573  0.49918300  0.25024918  1
  Al  Al27  1  0.99780327  0.50004174  0.75018916  1
  Al  Al28  1  0.49996091  -0.00001955  0.25072950  1
  Al  Al29  1  0.50140025  0.00070012  0.75011724  1
  Al  Al30  1  0.49825303  0.49912651  0.25014669  1
  Al  Al31  1  0.50287406  0.50143703  0.75064154  1
  N  N32  1  0.16667900  0.33333951  0.43154644  1
  N  N33  1  0.83351878  0.16675939  0.93040843  1
  N  N34  1  0.83343992  0.66671996  0.93048566  1
  N  N35  1  0.83343703  0.66671852  0.56893185  1
  C  C36  1  0.33311257  0.16661464  0.93014818  1
  C  C37  1  0.33295747  0.16690423  0.56955615  1
  C  C38  1  0.16619353  0.33309678  0.06835039  1
  C  C39  1  0.16612893  0.83306447  0.43101974  1
  C  C40  1  0.33311257  0.66649792  0.93014818  1
  C  C41  1  0.33295747  0.66605323  0.56955615  1
  C  C42  1  0.16611259  0.83305629  0.06844782  1
  C  C43  1  0.66694446  0.33388673  0.43102004  1
  C  C44  1  0.83400233  0.16700116  0.56947152  1
  C  C45  1  0.66740681  0.33376077  0.06865621  1
  C  C46  1  0.66694446  0.83305773  0.43102004  1
  C  C47  1  0.66740681  0.83364604  0.06865621  1
