# generated using pymatgen
data_Ti6Al2C3N
_symmetry_space_group_name_H-M   'P 1'
_cell_length_a   6.05732981
_cell_length_b   6.05792568
_cell_length_c   18.25063324
_cell_angle_alpha   90.00000003
_cell_angle_beta   89.99850747
_cell_angle_gamma   120.00325388
_symmetry_Int_Tables_number   1
_chemical_formula_structural   Ti6Al2C3N
_chemical_formula_sum   'Ti24 Al8 C12 N4'
_cell_volume   579.96193548
_cell_formula_units_Z   4
loop_
 _symmetry_equiv_pos_site_id
 _symmetry_equiv_pos_as_xyz
  1  'x, y, z'
loop_
 _atom_site_type_symbol
 _atom_site_label
 _atom_site_symmetry_multiplicity
 _atom_site_fract_x
 _atom_site_fract_y
 _atom_site_fract_z
 _atom_site_occupancy
  Ti  Ti0  1  0.16387749  0.33193875  0.87050249  1
  Ti  Ti1  1  0.33193055  0.16803426  0.37207115  1
  Ti  Ti2  1  0.33303566  0.16652892  0.12820320  1
  Ti  Ti3  1  0.16671737  0.33335869  0.63021069  1
  Ti  Ti4  1  0.00014940  0.00008490  0.99945222  1
  Ti  Ti5  1  0.00008378  0.00003990  0.50033394  1
  Ti  Ti6  1  0.16394081  0.83197040  0.87075252  1
  Ti  Ti7  1  0.33193055  0.66389628  0.37207115  1
  Ti  Ti8  1  0.33303566  0.66650673  0.12820320  1
  Ti  Ti9  1  0.16397837  0.83198919  0.62870449  1
  Ti  Ti10  1  0.00014940  0.50006451  0.99945222  1
  Ti  Ti11  1  0.00008378  0.50004388  0.50033394  1
  Ti  Ti12  1  0.66870567  0.33432125  0.87170571  1
  Ti  Ti13  1  0.83612271  0.16806136  0.37207644  1
  Ti  Ti14  1  0.83376750  0.16688375  0.12864680  1
  Ti  Ti15  1  0.66803290  0.33608416  0.62845768  1
  Ti  Ti16  1  0.50027452  0.00013727  0.99936089  1
  Ti  Ti17  1  0.49994569  0.99997285  0.50030349  1
  Ti  Ti18  1  0.66870567  0.83438444  0.87170571  1
  Ti  Ti19  1  0.83335424  0.66667712  0.37054990  1
  Ti  Ti20  1  0.83374360  0.66687179  0.12887663  1
  Ti  Ti21  1  0.66803290  0.83194875  0.62845768  1
  Ti  Ti22  1  0.50029870  0.50014936  0.99935233  1
  Ti  Ti23  1  0.49989194  0.49994597  0.50031224  1
  Al  Al24  1  0.00092672  0.00169012  0.25020366  1
  Al  Al25  1  0.99790351  0.99785554  0.75015446  1
  Al  Al26  1  0.00092672  0.49923660  0.25020366  1
  Al  Al27  1  0.99790351  0.50004797  0.75015446  1
  Al  Al28  1  0.49992180  -0.00003910  0.25070647  1
  Al  Al29  1  0.50130826  0.00065412  0.75006215  1
  Al  Al30  1  0.49826823  0.49913412  0.25008949  1
  Al  Al31  1  0.50272334  0.50136168  0.75062631  1
  N  N32  1  0.16667984  0.33333993  0.43123006  1
  N  N33  1  0.83355900  0.16677950  0.93004840  1
  N  N34  1  0.83346771  0.66673386  0.93012278  1
  N  N35  1  0.83344881  0.66672441  0.56928732  1
  C  C36  1  0.33310146  0.16661888  0.92964200  1
  C  C37  1  0.33293989  0.16689350  0.57006476  1
  C  C38  1  0.16621195  0.33310599  0.06881174  1
  C  C39  1  0.16612690  0.83306345  0.43054049  1
  C  C40  1  0.33310146  0.66648256  0.92964200  1
  C  C41  1  0.33293989  0.66604639  0.57006476  1
  C  C42  1  0.16611848  0.83305924  0.06890571  1
  C  C43  1  0.66694964  0.33389436  0.43053709  1
  C  C44  1  0.83401627  0.16700814  0.56998538  1
  C  C45  1  0.66735903  0.33374328  0.06914152  1
  C  C46  1  0.66694964  0.83305528  0.43053709  1
  C  C47  1  0.66735903  0.83361575  0.06914152  1
