# generated using pymatgen
data_Ti6Al2C3N
_symmetry_space_group_name_H-M   'P 1'
_cell_length_a   6.09736948
_cell_length_b   6.09797468
_cell_length_c   18.39806294
_cell_angle_alpha   90.00000000
_cell_angle_beta   89.99931985
_cell_angle_gamma   120.00328307
_symmetry_Int_Tables_number   1
_chemical_formula_structural   Ti6Al2C3N
_chemical_formula_sum   'Ti24 Al8 C12 N4'
_cell_volume   592.40196859
_cell_formula_units_Z   4
loop_
 _symmetry_equiv_pos_site_id
 _symmetry_equiv_pos_as_xyz
  1  'x, y, z'
loop_
 _atom_site_type_symbol
 _atom_site_label
 _atom_site_symmetry_multiplicity
 _atom_site_fract_x
 _atom_site_fract_y
 _atom_site_fract_z
 _atom_site_occupancy
  Ti  Ti0  1  0.16390336  0.33195154  0.87121936  1
  Ti  Ti1  1  0.33195319  0.16800594  0.37278441  1
  Ti  Ti2  1  0.33303600  0.16654547  0.12748146  1
  Ti  Ti3  1  0.16670192  0.33335111  0.62947230  1
  Ti  Ti4  1  0.00025277  0.00013698  0.99949013  1
  Ti  Ti5  1  0.00008097  0.00003814  0.50034604  1
  Ti  Ti6  1  0.16394967  0.83197483  0.87145528  1
  Ti  Ti7  1  0.33195351  0.66394748  0.37278452  1
  Ti  Ti8  1  0.33303598  0.66649055  0.12748151  1
  Ti  Ti9  1  0.16401935  0.83200962  0.62798489  1
  Ti  Ti10  1  0.00025241  0.50011549  0.99949003  1
  Ti  Ti11  1  0.00008178  0.50004341  0.50034584  1
  Ti  Ti12  1  0.66865134  0.33430695  0.87238663  1
  Ti  Ti13  1  0.83607219  0.16803600  0.37279443  1
  Ti  Ti14  1  0.83378905  0.16689453  0.12791863  1
  Ti  Ti15  1  0.66802316  0.33603712  0.62775495  1
  Ti  Ti16  1  0.50018194  0.00009124  0.99937641  1
  Ti  Ti17  1  0.49994831  0.99997344  0.50031231  1
  Ti  Ti18  1  0.66865185  0.83434454  0.87238636  1
  Ti  Ti19  1  0.83335509  0.66667759  0.37129237  1
  Ti  Ti20  1  0.83374517  0.66687263  0.12812653  1
  Ti  Ti21  1  0.66802283  0.83198629  0.62775439  1
  Ti  Ti22  1  0.50020785  0.50010364  0.99936571  1
  Ti  Ti23  1  0.49989381  0.49994761  0.50032491  1
  Al  Al24  1  0.00090116  0.00167384  0.25021595  1
  Al  Al25  1  0.99789094  0.99784876  0.75017196  1
  Al  Al26  1  0.00090103  0.49922719  0.25021590  1
  Al  Al27  1  0.99789078  0.50004206  0.75017170  1
  Al  Al28  1  0.49994478  -0.00002753  0.25070607  1
  Al  Al29  1  0.50132493  0.00066251  0.75008925  1
  Al  Al30  1  0.49829669  0.49914823  0.25010754  1
  Al  Al31  1  0.50274053  0.50137018  0.75063398  1
  N  N32  1  0.16668122  0.33334071  0.43138735  1
  N  N33  1  0.83353642  0.16676838  0.93020320  1
  N  N34  1  0.83345414  0.66672682  0.93027770  1
  N  N35  1  0.83344011  0.66672037  0.56912677  1
  C  C36  1  0.33311057  0.16661599  0.92987144  1
  C  C37  1  0.33294941  0.16690224  0.56983288  1
  C  C38  1  0.16619832  0.33309921  0.06858272  1
  C  C39  1  0.16612501  0.83306251  0.43078091  1
  C  C40  1  0.33311012  0.66649427  0.92987161  1
  C  C41  1  0.33295045  0.66604778  0.56983306  1
  C  C42  1  0.16611532  0.83305767  0.06867695  1
  C  C43  1  0.66695021  0.33389567  0.43077862  1
  C  C44  1  0.83401084  0.16700481  0.56975285  1
  C  C45  1  0.66738172  0.33374783  0.06890172  1
  C  C46  1  0.66695014  0.83305461  0.43077866  1
  C  C47  1  0.66738159  0.83363378  0.06890178  1
