# generated using pymatgen
data_Ti6Al2C3N
_symmetry_space_group_name_H-M   'P 1'
_cell_length_a   6.24949232
_cell_length_b   6.25014292
_cell_length_c   18.98099675
_cell_angle_alpha   90.00000001
_cell_angle_beta   89.99594293
_cell_angle_gamma   120.00344358
_symmetry_Int_Tables_number   1
_chemical_formula_structural   Ti6Al2C3N
_chemical_formula_sum   'Ti24 Al8 C12 N4'
_cell_volume   642.05060698
_cell_formula_units_Z   4
loop_
 _symmetry_equiv_pos_site_id
 _symmetry_equiv_pos_as_xyz
  1  'x, y, z'
loop_
 _atom_site_type_symbol
 _atom_site_label
 _atom_site_symmetry_multiplicity
 _atom_site_fract_x
 _atom_site_fract_y
 _atom_site_fract_z
 _atom_site_occupancy
  Ti  Ti0  1  0.16399607  0.33199805  0.87428634  1
  Ti  Ti1  1  0.33205546  0.16791314  0.37582670  1
  Ti  Ti2  1  0.33305280  0.16661394  0.12439168  1
  Ti  Ti3  1  0.16662343  0.33331173  0.62635336  1
  Ti  Ti4  1  0.00072423  0.00037794  0.99959744  1
  Ti  Ti5  1  0.00007271  0.00003252  0.50036173  1
  Ti  Ti6  1  0.16397935  0.83198968  0.87446170  1
  Ti  Ti7  1  0.33205546  0.66414231  0.37582670  1
  Ti  Ti8  1  0.33305280  0.66643883  0.12439168  1
  Ti  Ti9  1  0.16413769  0.83206885  0.62496162  1
  Ti  Ti10  1  0.00072423  0.50034629  0.99959744  1
  Ti  Ti11  1  0.00007271  0.50004019  0.50036173  1
  Ti  Ti12  1  0.66848932  0.33427200  0.87530124  1
  Ti  Ti13  1  0.83591431  0.16795715  0.37584019  1
  Ti  Ti14  1  0.83381550  0.16690774  0.12480005  1
  Ti  Ti15  1  0.66797104  0.33585944  0.62479063  1
  Ti  Ti16  1  0.49976207  0.99988103  0.99938960  1
  Ti  Ti17  1  0.49995783  0.99997891  0.50032371  1
  Ti  Ti18  1  0.66848932  0.83421734  0.87530124  1
  Ti  Ti19  1  0.83337641  0.66668821  0.37444565  1
  Ti  Ti20  1  0.83370026  0.66685013  0.12493689  1
  Ti  Ti21  1  0.66797104  0.83211160  0.62479063  1
  Ti  Ti22  1  0.49978703  0.49989352  0.99937166  1
  Ti  Ti23  1  0.49989994  0.49994997  0.50034134  1
  Al  Al24  1  0.00079170  0.00159034  0.25031891  1
  Al  Al25  1  0.99784816  0.99783251  0.75026992  1
  Al  Al26  1  0.00079170  0.49920136  0.25031891  1
  Al  Al27  1  0.99784816  0.50001565  0.75026992  1
  Al  Al28  1  0.50004363  0.00002181  0.25076709  1
  Al  Al29  1  0.50138435  0.00069216  0.75022867  1
  Al  Al30  1  0.49843341  0.49921670  0.25022996  1
  Al  Al31  1  0.50279090  0.50139546  0.75070398  1
  N  N32  1  0.16669468  0.33334735  0.43205830  1
  N  N33  1  0.83346716  0.16673358  0.93082389  1
  N  N34  1  0.83341156  0.66670579  0.93090186  1
  N  N35  1  0.83340962  0.66670481  0.56850141  1
  C  C36  1  0.33314411  0.16660897  0.93081203  1
  C  C37  1  0.33295672  0.16692428  0.56887752  1
  C  C38  1  0.16613975  0.33306989  0.06759758  1
  C  C39  1  0.16611154  0.83305578  0.43178044  1
  C  C40  1  0.33314411  0.66653515  0.93081203  1
  C  C41  1  0.33295672  0.66603242  0.56887752  1
  C  C42  1  0.16608985  0.83304493  0.06769280  1
  C  C43  1  0.66696293  0.33391733  0.43178149  1
  C  C44  1  0.83400128  0.16700064  0.56879126  1
  C  C45  1  0.66746703  0.33376980  0.06787604  1
  C  C46  1  0.66696293  0.83304560  0.43178149  1
  C  C47  1  0.66746703  0.83369724  0.06787604  1
