# generated using pymatgen
data_Ti6Al2C3N
_symmetry_space_group_name_H-M   'P 1'
_cell_length_a   6.17718312
_cell_length_b   6.17777498
_cell_length_c   18.69467142
_cell_angle_alpha   89.99999999
_cell_angle_beta   89.99680603
_cell_angle_gamma   120.00316935
_symmetry_Int_Tables_number   1
_chemical_formula_structural   Ti6Al2C3N
_chemical_formula_sum   'Ti24 Al8 C12 N4'
_cell_volume   617.81316417
_cell_formula_units_Z   4
loop_
 _symmetry_equiv_pos_site_id
 _symmetry_equiv_pos_as_xyz
  1  'x, y, z'
loop_
 _atom_site_type_symbol
 _atom_site_label
 _atom_site_symmetry_multiplicity
 _atom_site_fract_x
 _atom_site_fract_y
 _atom_site_fract_z
 _atom_site_occupancy
  Ti  Ti0  1  0.16397343  0.33198674  0.87274900  1
  Ti  Ti1  1  0.33201333  0.16795096  0.37427582  1
  Ti  Ti2  1  0.33304266  0.16658041  0.12596663  1
  Ti  Ti3  1  0.16666289  0.33333145  0.62791060  1
  Ti  Ti4  1  0.00045971  0.00024213  0.99954112  1
  Ti  Ti5  1  0.00008149  0.00004036  0.50034550  1
  Ti  Ti6  1  0.16398436  0.83199218  0.87295373  1
  Ti  Ti7  1  0.33201333  0.66406236  0.37427582  1
  Ti  Ti8  1  0.33304266  0.66646223  0.12596663  1
  Ti  Ti9  1  0.16410259  0.83205129  0.62647937  1
  Ti  Ti10  1  0.00045971  0.50021759  0.99954112  1
  Ti  Ti11  1  0.00008149  0.50004111  0.50034550  1
  Ti  Ti12  1  0.66855130  0.33428098  0.87383636  1
  Ti  Ti13  1  0.83597774  0.16798888  0.37429027  1
  Ti  Ti14  1  0.83380366  0.16690182  0.12639080  1
  Ti  Ti15  1  0.66798501  0.33592566  0.62627648  1
  Ti  Ti16  1  0.50000081  0.00000041  0.99938680  1
  Ti  Ti17  1  0.49995143  0.99997572  0.50030842  1
  Ti  Ti18  1  0.66855130  0.83427033  0.87383636  1
  Ti  Ti19  1  0.83336621  0.66668311  0.37284726  1
  Ti  Ti20  1  0.83372164  0.66686082  0.12656550  1
  Ti  Ti21  1  0.66798501  0.83205935  0.62627648  1
  Ti  Ti22  1  0.50002667  0.50001334  0.99937313  1
  Ti  Ti23  1  0.49989069  0.49994535  0.50032491  1
  Al  Al24  1  0.00086922  0.00166902  0.25027866  1
  Al  Al25  1  0.99783758  0.99780769  0.75020816  1
  Al  Al26  1  0.00086922  0.49920019  0.25027866  1
  Al  Al27  1  0.99783758  0.50002988  0.75020816  1
  Al  Al28  1  0.49998531  -0.00000734  0.25074755  1
  Al  Al29  1  0.50137803  0.00068901  0.75014686  1
  Al  Al30  1  0.49832291  0.49916145  0.25018068  1
  Al  Al31  1  0.50281055  0.50140528  0.75065565  1
  N  N32  1  0.16668813  0.33334408  0.43170934  1
  N  N33  1  0.83349868  0.16674934  0.93053025  1
  N  N34  1  0.83343533  0.66671767  0.93060731  1
  N  N35  1  0.83342211  0.66671105  0.56880317  1
  C  C36  1  0.33312388  0.16660703  0.93034156  1
  C  C37  1  0.33295708  0.16691899  0.56935675  1
  C  C38  1  0.16616997  0.33308500  0.06811423  1
  C  C39  1  0.16611776  0.83305889  0.43125757  1
  C  C40  1  0.33312388  0.66651684  0.93034156  1
  C  C41  1  0.33295708  0.66603808  0.56935675  1
  C  C42  1  0.16610969  0.83305484  0.06821031  1
  C  C43  1  0.66695422  0.33390721  0.43125635  1
  C  C44  1  0.83400812  0.16700405  0.56927241  1
  C  C45  1  0.66742015  0.33375314  0.06840905  1
  C  C46  1  0.66695422  0.83304700  0.43125635  1
  C  C47  1  0.66742015  0.83366701  0.06840905  1
