# generated using pymatgen
data_Ti6Al2C3N
_symmetry_space_group_name_H-M   'P 1'
_cell_length_a   6.31461596
_cell_length_b   6.31536674
_cell_length_c   19.25523848
_cell_angle_alpha   90.00000000
_cell_angle_beta   89.99664659
_cell_angle_gamma   120.00393306
_symmetry_Int_Tables_number   1
_chemical_formula_structural   Ti6Al2C3N
_chemical_formula_sum   'Ti24 Al8 C12 N4'
_cell_volume   664.97885798
_cell_formula_units_Z   4
loop_
 _symmetry_equiv_pos_site_id
 _symmetry_equiv_pos_as_xyz
  1  'x, y, z'
loop_
 _atom_site_type_symbol
 _atom_site_label
 _atom_site_symmetry_multiplicity
 _atom_site_fract_x
 _atom_site_fract_y
 _atom_site_fract_z
 _atom_site_occupancy
  Ti  Ti0  1  0.16396246  0.33198125  0.87581723  1
  Ti  Ti1  1  0.33205831  0.16791482  0.37741562  1
  Ti  Ti2  1  0.33309265  0.16665167  0.12279295  1
  Ti  Ti3  1  0.16660573  0.33330287  0.62481818  1
  Ti  Ti4  1  0.00105584  0.00054896  0.99965440  1
  Ti  Ti5  1  0.00007436  0.00004042  0.50038212  1
  Ti  Ti6  1  0.16391184  0.83195592  0.87595282  1
  Ti  Ti7  1  0.33205831  0.66414348  0.37741562  1
  Ti  Ti8  1  0.33309265  0.66644097  0.12279295  1
  Ti  Ti9  1  0.16415722  0.83207861  0.62341023  1
  Ti  Ti10  1  0.00105584  0.50050689  0.99965440  1
  Ti  Ti11  1  0.00007436  0.50003394  0.50038212  1
  Ti  Ti12  1  0.66847835  0.33428132  0.87679465  1
  Ti  Ti13  1  0.83591264  0.16795633  0.37742537  1
  Ti  Ti14  1  0.83379667  0.16689834  0.12320475  1
  Ti  Ti15  1  0.66797776  0.33583870  0.62327493  1
  Ti  Ti16  1  0.49946161  0.99973081  0.99939580  1
  Ti  Ti17  1  0.49996380  0.99998191  0.50034506  1
  Ti  Ti18  1  0.66847835  0.83419703  0.87679465  1
  Ti  Ti19  1  0.83336847  0.66668424  0.37601571  1
  Ti  Ti20  1  0.83366039  0.66683019  0.12330722  1
  Ti  Ti21  1  0.66797776  0.83213906  0.62327493  1
  Ti  Ti22  1  0.49947400  0.49973699  0.99937437  1
  Ti  Ti23  1  0.49988921  0.49994461  0.50035911  1
  Al  Al24  1  0.00077328  0.00158681  0.25037161  1
  Al  Al25  1  0.99781732  0.99780931  0.75032960  1
  Al  Al26  1  0.00077328  0.49918648  0.25037161  1
  Al  Al27  1  0.99781732  0.50000802  0.75032960  1
  Al  Al28  1  0.50008589  0.00004295  0.25080693  1
  Al  Al29  1  0.50140534  0.00070267  0.75030908  1
  Al  Al30  1  0.49846343  0.49923171  0.25028775  1
  Al  Al31  1  0.50281347  0.50140675  0.75076170  1
  N  N32  1  0.16670940  0.33335470  0.43236720  1
  N  N33  1  0.83344175  0.16672088  0.93110549  1
  N  N34  1  0.83339805  0.66669903  0.93118399  1
  N  N35  1  0.83339185  0.66669592  0.56822645  1
  C  C36  1  0.33314503  0.16661305  0.93131062  1
  C  C37  1  0.33299724  0.16690102  0.56838492  1
  C  C38  1  0.16616496  0.33308249  0.06706011  1
  C  C39  1  0.16617596  0.83308798  0.43230947  1
  C  C40  1  0.33314503  0.66653197  0.93131062  1
  C  C41  1  0.33299724  0.66609622  0.56838492  1
  C  C42  1  0.16611673  0.83305837  0.06715795  1
  C  C43  1  0.66693172  0.33385822  0.43231368  1
  C  C44  1  0.83392734  0.16696367  0.56829857  1
  C  C45  1  0.66746902  0.33377023  0.06732463  1
  C  C46  1  0.66693172  0.83307350  0.43231368  1
  C  C47  1  0.66746902  0.83369879  0.06732463  1
