# generated using pymatgen
data_Ti6Al2C3N
_symmetry_space_group_name_H-M   'P 1'
_cell_length_a   6.21068526
_cell_length_b   6.21132933
_cell_length_c   18.82597105
_cell_angle_alpha   89.99999999
_cell_angle_beta   89.99863982
_cell_angle_gamma   120.00343040
_symmetry_Int_Tables_number   1
_chemical_formula_structural   Ti6Al2C3N
_chemical_formula_sum   'Ti24 Al8 C12 N4'
_cell_volume   628.92242776
_cell_formula_units_Z   4
loop_
 _symmetry_equiv_pos_site_id
 _symmetry_equiv_pos_as_xyz
  1  'x, y, z'
loop_
 _atom_site_type_symbol
 _atom_site_label
 _atom_site_symmetry_multiplicity
 _atom_site_fract_x
 _atom_site_fract_y
 _atom_site_fract_z
 _atom_site_occupancy
  Ti  Ti0  1  0.16397838  0.33198921  0.87344299  1
  Ti  Ti1  1  0.33202256  0.16793446  0.37497463  1
  Ti  Ti2  1  0.33304579  0.16659598  0.12525082  1
  Ti  Ti3  1  0.16665189  0.33332596  0.62721093  1
  Ti  Ti4  1  0.00058398  0.00030476  0.99957082  1
  Ti  Ti5  1  0.00007439  0.00003511  0.50035151  1
  Ti  Ti6  1  0.16397940  0.83198970  0.87363973  1
  Ti  Ti7  1  0.33202256  0.66408809  0.37497463  1
  Ti  Ti8  1  0.33304579  0.66644980  0.12525082  1
  Ti  Ti9  1  0.16411283  0.83205641  0.62579025  1
  Ti  Ti10  1  0.00058398  0.50027923  0.99957082  1
  Ti  Ti11  1  0.00007439  0.50003927  0.50035151  1
  Ti  Ti12  1  0.66851463  0.33427199  0.87450013  1
  Ti  Ti13  1  0.83595134  0.16797567  0.37498956  1
  Ti  Ti14  1  0.83382368  0.16691183  0.12566884  1
  Ti  Ti15  1  0.66798694  0.33590588  0.62560270  1
  Ti  Ti16  1  0.49988796  0.99994399  0.99939542  1
  Ti  Ti17  1  0.49995663  0.99997831  0.50031295  1
  Ti  Ti18  1  0.66851463  0.83424265  0.87450013  1
  Ti  Ti19  1  0.83336559  0.66668280  0.37356746  1
  Ti  Ti20  1  0.83372496  0.66686248  0.12582396  1
  Ti  Ti21  1  0.66798694  0.83208106  0.62560270  1
  Ti  Ti22  1  0.49991547  0.49995774  0.99938022  1
  Ti  Ti23  1  0.49989739  0.49994870  0.50033212  1
  Al  Al24  1  0.00083636  0.00163746  0.25029445  1
  Al  Al25  1  0.99784161  0.99781524  0.75023600  1
  Al  Al26  1  0.00083636  0.49919891  0.25029445  1
  Al  Al27  1  0.99784161  0.50002636  0.75023600  1
  Al  Al28  1  0.50001072  0.00000536  0.25075310  1
  Al  Al29  1  0.50137962  0.00068980  0.75018258  1
  Al  Al30  1  0.49836772  0.49918386  0.25020094  1
  Al  Al31  1  0.50280460  0.50140230  0.75067275  1
  N  N32  1  0.16669143  0.33334572  0.43186569  1
  N  N33  1  0.83348840  0.16674420  0.93066824  1
  N  N34  1  0.83343614  0.66671808  0.93074406  1
  N  N35  1  0.83341003  0.66670502  0.56866748  1
  C  C36  1  0.33312319  0.16659446  0.93055719  1
  C  C37  1  0.33296429  0.16693220  0.56913703  1
  C  C38  1  0.16615751  0.33307877  0.06788361  1
  C  C39  1  0.16610902  0.83305451  0.43149555  1
  C  C40  1  0.33312319  0.66652873  0.93055719  1
  C  C41  1  0.33296429  0.66603209  0.56913703  1
  C  C42  1  0.16610651  0.83305326  0.06797825  1
  C  C43  1  0.66695903  0.33391611  0.43149587  1
  C  C44  1  0.83400452  0.16700225  0.56905404  1
  C  C45  1  0.66744133  0.33375712  0.06816853  1
  C  C46  1  0.66695903  0.83304292  0.43149587  1
  C  C47  1  0.66744133  0.83368422  0.06816853  1
