# generated using pymatgen
data_HfTaTiNbZnC5
_symmetry_space_group_name_H-M   'P 1'
_cell_length_a   7.18168990
_cell_length_b   7.15926015
_cell_length_c   4.42428166
_cell_angle_alpha   90.00000000
_cell_angle_beta   90.00000000
_cell_angle_gamma   89.12947901
_symmetry_Int_Tables_number   1
_chemical_formula_structural   HfTaTiNbZnC5
_chemical_formula_sum   'Hf2 Ta2 Ti2 Nb2 Zn2 C10'
_cell_volume   227.45078053
_cell_formula_units_Z   2
loop_
 _symmetry_equiv_pos_site_id
 _symmetry_equiv_pos_as_xyz
  1  'x, y, z'
loop_
 _atom_site_type_symbol
 _atom_site_label
 _atom_site_symmetry_multiplicity
 _atom_site_fract_x
 _atom_site_fract_y
 _atom_site_fract_z
 _atom_site_occupancy
  C  C0  1  0.30060715  0.90563304  0.00000000  1
  C  C1  1  0.48407717  0.48976469  0.00000000  1
  C  C2  1  0.38865322  0.19665055  0.50000000  1
  C  C3  1  0.10989116  0.29953366  0.00000000  1
  C  C4  1  0.01740644  0.00520605  0.50000000  1
  C  C5  1  0.70175495  0.09524187  0.00000000  1
  C  C6  1  0.60062239  0.78770169  0.50000000  1
  C  C7  1  0.19988416  0.60611638  0.50000000  1
  C  C8  1  0.91265658  0.71838657  0.00000000  1
  C  C9  1  0.81772381  0.41620700  0.50000000  1
  Hf  Hf10  1  0.50914566  0.48870846  0.50000000  1
  Hf  Hf11  1  0.60289904  0.80619526  0.00000000  1
  Nb  Nb12  1  0.20097808  0.60342962  0.00000000  1
  Nb  Nb13  1  0.09723341  0.30414276  0.50000000  1
  Ta  Ta14  1  0.90012725  0.69600898  0.50000000  1
  Ta  Ta15  1  0.99248185  0.01665527  0.00000000  1
  Ti  Ti16  1  0.30107191  0.90054901  0.50000000  1
  Ti  Ti17  1  0.40441843  0.19284141  0.00000000  1
  Zn  Zn18  1  0.67942010  0.09260425  0.50000000  1
  Zn  Zn19  1  0.77894722  0.37842349  0.00000000  1
