# generated using pymatgen
data_Ti3AlCN
_symmetry_space_group_name_H-M   'P 1'
_cell_length_a   6.09391266
_cell_length_b   3.04746808
_cell_length_c   18.50731129
_cell_angle_alpha   89.99999999
_cell_angle_beta   90.00024426
_cell_angle_gamma   120.00555569
_symmetry_Int_Tables_number   1
_chemical_formula_structural   Ti3AlCN
_chemical_formula_sum   'Ti12 Al4 C4 N4'
_cell_volume   297.63570995
_cell_formula_units_Z   4
loop_
 _symmetry_equiv_pos_site_id
 _symmetry_equiv_pos_as_xyz
  1  'x, y, z'
loop_
 _atom_site_type_symbol
 _atom_site_label
 _atom_site_symmetry_multiplicity
 _atom_site_fract_x
 _atom_site_fract_y
 _atom_site_fract_z
 _atom_site_occupancy
  Ti  Ti0  1  0.16869075  0.66869076  0.87244164  1
  Ti  Ti1  1  0.33382895  0.33382894  0.37290084  1
  Ti  Ti2  1  0.33359759  0.33359758  0.12839558  1
  Ti  Ti3  1  0.16801932  0.66801933  0.62663109  1
  Ti  Ti4  1  0.00013630  0.00013630  0.99966153  1
  Ti  Ti5  1  0.99893836  0.99893836  0.49991543  1
  Ti  Ti6  1  0.66419106  0.66419106  0.87132429  1
  Ti  Ti7  1  0.83386845  0.33386845  0.37330073  1
  Ti  Ti8  1  0.83297894  0.33297894  0.12791013  1
  Ti  Ti9  1  0.66389971  0.66389971  0.62769593  1
  Ti  Ti10  1  0.50032780  0.00032780  0.99972908  1
  Ti  Ti11  1  0.50143508  0.00143508  0.49996095  1
  Al  Al12  1  0.99991337  0.99991337  0.25166886  1
  Al  Al13  1  0.00210845  0.00210845  0.74937568  1
  Al  Al14  1  0.50023202  0.00023202  0.25175166  1
  Al  Al15  1  0.49765451  0.99765451  0.74936624  1
  N  N16  1  0.16750596  0.66750597  0.43146441  1
  N  N17  1  0.33364494  0.33364493  0.93034448  1
  N  N18  1  0.33383521  0.33383520  0.56782018  1
  N  N19  1  0.66582384  0.66582384  0.43170166  1
  C  C20  1  0.16722126  0.66722127  0.06918233  1
  C  C21  1  0.83312315  0.33312315  0.93003381  1
  C  C22  1  0.83289018  0.33289018  0.56843402  1
  C  C23  1  0.66613480  0.66613480  0.06898944  1
