# generated using pymatgen
data_Ti3AlCN
_symmetry_space_group_name_H-M   'P 1'
_cell_length_a   6.20848574
_cell_length_b   3.10485823
_cell_length_c   18.92152595
_cell_angle_alpha   90.00000001
_cell_angle_beta   90.00221410
_cell_angle_gamma   120.00655737
_symmetry_Int_Tables_number   1
_chemical_formula_structural   Ti3AlCN
_chemical_formula_sum   'Ti12 Al4 C4 N4'
_cell_volume   315.85339606
_cell_formula_units_Z   4
loop_
 _symmetry_equiv_pos_site_id
 _symmetry_equiv_pos_as_xyz
  1  'x, y, z'
loop_
 _atom_site_type_symbol
 _atom_site_label
 _atom_site_symmetry_multiplicity
 _atom_site_fract_x
 _atom_site_fract_y
 _atom_site_fract_z
 _atom_site_occupancy
  Ti  Ti0  1  0.16856333  0.66856334  0.87462441  1
  Ti  Ti1  1  0.33380004  0.33380003  0.37538705  1
  Ti  Ti2  1  0.33355827  0.33355826  0.12607376  1
  Ti  Ti3  1  0.16798554  0.66798555  0.62415911  1
  Ti  Ti4  1  0.99979888  0.99979888  0.99964549  1
  Ti  Ti5  1  0.99855984  0.99855984  0.50000615  1
  Ti  Ti6  1  0.66419543  0.66419543  0.87357680  1
  Ti  Ti7  1  0.83384393  0.33384393  0.37579595  1
  Ti  Ti8  1  0.83304416  0.33304416  0.12561108  1
  Ti  Ti9  1  0.66394678  0.66394678  0.62522119  1
  Ti  Ti10  1  0.50069690  0.00069690  0.99980572  1
  Ti  Ti11  1  0.50186964  0.00186964  0.49996654  1
  Al  Al12  1  0.00006187  0.00006187  0.25207314  1
  Al  Al13  1  0.00210235  0.00210235  0.74928908  1
  Al  Al14  1  0.50006430  0.00006430  0.25216550  1
  Al  Al15  1  0.49772194  0.99772194  0.74928188  1
  N  N16  1  0.16747241  0.66747242  0.43201185  1
  N  N17  1  0.33361885  0.33361884  0.93074390  1
  N  N18  1  0.33387945  0.33387944  0.56723263  1
  N  N19  1  0.66577134  0.66577134  0.43228885  1
  C  C20  1  0.16728044  0.66728045  0.06844678  1
  C  C21  1  0.83311878  0.33311878  0.93066828  1
  C  C22  1  0.83293963  0.33293963  0.56763263  1
  C  C23  1  0.66610589  0.66610589  0.06829225  1
