# generated using pymatgen
data_Ti4Al2CN
_symmetry_space_group_name_H-M   'P 1'
_cell_length_a   5.97970559
_cell_length_b   2.99397967
_cell_length_c   13.45531917
_cell_angle_alpha   90.00000000
_cell_angle_beta   90.00000000
_cell_angle_gamma   120.04567029
_symmetry_Int_Tables_number   1
_chemical_formula_structural   Ti4Al2CN
_chemical_formula_sum   'Ti8 Al4 C2 N2'
_cell_volume   208.52265032
_cell_formula_units_Z   2
loop_
 _symmetry_equiv_pos_site_id
 _symmetry_equiv_pos_as_xyz
  1  'x, y, z'
loop_
 _atom_site_type_symbol
 _atom_site_label
 _atom_site_symmetry_multiplicity
 _atom_site_fract_x
 _atom_site_fract_y
 _atom_site_fract_z
 _atom_site_occupancy
  Ti  Ti0  1  0.16507291  0.66507292  0.08513461  1
  Ti  Ti1  1  0.33129041  0.33129040  0.58624189  1
  Ti  Ti2  1  0.33129041  0.33129040  0.91375811  1
  Ti  Ti3  1  0.16507291  0.66507292  0.41486539  1
  Ti  Ti4  1  0.66870960  0.66870960  0.08624189  1
  Ti  Ti5  1  0.83492708  0.33492708  0.58513461  1
  Ti  Ti6  1  0.83492708  0.33492708  0.91486539  1
  Ti  Ti7  1  0.66870960  0.66870960  0.41375811  1
  Al  Al8  1  0.16555238  0.66555239  0.75000000  1
  Al  Al9  1  0.33183340  0.33183339  0.25000000  1
  Al  Al10  1  0.66816661  0.66816661  0.75000000  1
  Al  Al11  1  0.83444761  0.33444761  0.25000000  1
  N  N12  1  0.00000000  0.00000000  0.00000000  1
  N  N13  1  0.00000000  0.00000000  0.50000000  1
  C  C14  1  0.50000000  0.00000000  0.00000000  1
  C  C15  1  0.50000000  0.00000000  0.50000000  1
