# generated using pymatgen
data_Ti3AlCN
_symmetry_space_group_name_H-M   'P 1'
_cell_length_a   6.16841449
_cell_length_b   3.08476243
_cell_length_c   18.77645197
_cell_angle_alpha   89.99999999
_cell_angle_beta   90.00181593
_cell_angle_gamma   120.00595448
_symmetry_Int_Tables_number   1
_chemical_formula_structural   Ti3AlCN
_chemical_formula_sum   'Ti12 Al4 C4 N4'
_cell_volume   309.39505771
_cell_formula_units_Z   4
loop_
 _symmetry_equiv_pos_site_id
 _symmetry_equiv_pos_as_xyz
  1  'x, y, z'
loop_
 _atom_site_type_symbol
 _atom_site_label
 _atom_site_symmetry_multiplicity
 _atom_site_fract_x
 _atom_site_fract_y
 _atom_site_fract_z
 _atom_site_occupancy
  Ti  Ti0  1  0.16859056  0.66859057  0.87385324  1
  Ti  Ti1  1  0.33378363  0.33378362  0.37447119  1
  Ti  Ti2  1  0.33357888  0.33357887  0.12688921  1
  Ti  Ti3  1  0.16801771  0.66801772  0.62509078  1
  Ti  Ti4  1  0.99992519  0.99992519  0.99963398  1
  Ti  Ti5  1  0.99868444  0.99868444  0.49997318  1
  Ti  Ti6  1  0.66419376  0.66419376  0.87278034  1
  Ti  Ti7  1  0.83383140  0.33383140  0.37486626  1
  Ti  Ti8  1  0.83302948  0.33302948  0.12642155  1
  Ti  Ti9  1  0.66394072  0.66394072  0.62615195  1
  Ti  Ti10  1  0.50056007  0.00056007  0.99976407  1
  Ti  Ti11  1  0.50174362  0.00174362  0.49995331  1
  Al  Al12  1  0.00001264  0.00001264  0.25191083  1
  Al  Al13  1  0.00211864  0.00211864  0.74935339  1
  Al  Al14  1  0.50012362  0.00012362  0.25200016  1
  Al  Al15  1  0.49767576  0.99767576  0.74935092  1
  N  N16  1  0.16747954  0.66747955  0.43180595  1
  N  N17  1  0.33361491  0.33361490  0.93061677  1
  N  N18  1  0.33386970  0.33386969  0.56745095  1
  N  N19  1  0.66578702  0.66578702  0.43207755  1
  C  C20  1  0.16727245  0.66727246  0.06868290  1
  C  C21  1  0.83311175  0.33311175  0.93045190  1
  C  C22  1  0.83292882  0.33292882  0.56793393  1
  C  C23  1  0.66612569  0.66612569  0.06851569  1
