# generated using pymatgen
data_Ti3AlCN
_symmetry_space_group_name_H-M   'P 1'
_cell_length_a   6.01721043
_cell_length_b   3.00864475
_cell_length_c   18.19788702
_cell_angle_alpha   90.00000002
_cell_angle_beta   90.01689830
_cell_angle_gamma   120.00043440
_symmetry_Int_Tables_number   1
_chemical_formula_structural   Ti3AlCN
_chemical_formula_sum   'Ti12 Al4 C4 N4'
_cell_volume   285.30920286
_cell_formula_units_Z   4
loop_
 _symmetry_equiv_pos_site_id
 _symmetry_equiv_pos_as_xyz
  1  'x, y, z'
loop_
 _atom_site_type_symbol
 _atom_site_label
 _atom_site_symmetry_multiplicity
 _atom_site_fract_x
 _atom_site_fract_y
 _atom_site_fract_z
 _atom_site_occupancy
  Ti  Ti0  1  0.16875057  0.66875058  0.87105177  1
  Ti  Ti1  1  0.33374687  0.33374686  0.37139627  1
  Ti  Ti2  1  0.33371308  0.33371307  0.12989291  1
  Ti  Ti3  1  0.16821554  0.66821555  0.62813390  1
  Ti  Ti4  1  0.00032927  0.00032927  0.99963531  1
  Ti  Ti5  1  0.99916969  0.99916969  0.49983878  1
  Ti  Ti6  1  0.66401275  0.66401275  0.86988722  1
  Ti  Ti7  1  0.83380412  0.33380412  0.37181307  1
  Ti  Ti8  1  0.83303573  0.33303573  0.12938148  1
  Ti  Ti9  1  0.66384941  0.66384941  0.62923107  1
  Ti  Ti10  1  0.50009816  0.00009816  0.99964896  1
  Ti  Ti11  1  0.50118095  0.00118095  0.49993939  1
  Al  Al12  1  0.99984019  0.99984019  0.25146119  1
  Al  Al13  1  0.00209685  0.00209685  0.74943196  1
  Al  Al14  1  0.50028727  0.00028727  0.25153601  1
  Al  Al15  1  0.49767843  0.99767843  0.74943431  1
  N  N16  1  0.16748735  0.66748736  0.43107734  1
  N  N17  1  0.33362115  0.33362114  0.93007204  1
  N  N18  1  0.33383382  0.33383381  0.56818989  1
  N  N19  1  0.66581063  0.66581063  0.43128814  1
  C  C20  1  0.16722064  0.66722065  0.06964566  1
  C  C21  1  0.83308580  0.33308580  0.92959481  1
  C  C22  1  0.83294036  0.33294036  0.56899369  1
  C  C23  1  0.66619137  0.66619137  0.06942484  1
