# generated using pymatgen
data_Ti3AlCN
_symmetry_space_group_name_H-M   'P 1'
_cell_length_a   6.24207088
_cell_length_b   3.12168954
_cell_length_c   19.05058977
_cell_angle_alpha   90.00000000
_cell_angle_beta   90.00183768
_cell_angle_gamma   120.00693285
_symmetry_Int_Tables_number   1
_chemical_formula_structural   Ti3AlCN
_chemical_formula_sum   'Ti12 Al4 C4 N4'
_cell_volume   321.46013111
_cell_formula_units_Z   4
loop_
 _symmetry_equiv_pos_site_id
 _symmetry_equiv_pos_as_xyz
  1  'x, y, z'
loop_
 _atom_site_type_symbol
 _atom_site_label
 _atom_site_symmetry_multiplicity
 _atom_site_fract_x
 _atom_site_fract_y
 _atom_site_fract_z
 _atom_site_occupancy
  Ti  Ti0  1  0.16850616  0.66850617  0.87533465  1
  Ti  Ti1  1  0.33375302  0.33375301  0.37621675  1
  Ti  Ti2  1  0.33355607  0.33355606  0.12531192  1
  Ti  Ti3  1  0.16799706  0.66799707  0.62333656  1
  Ti  Ti4  1  0.99965614  0.99965614  0.99964416  1
  Ti  Ti5  1  0.99839768  0.99839768  0.50002807  1
  Ti  Ti6  1  0.66418689  0.66418689  0.87430892  1
  Ti  Ti7  1  0.83382488  0.33382488  0.37662187  1
  Ti  Ti8  1  0.83307751  0.33307751  0.12486042  1
  Ti  Ti9  1  0.66397746  0.66397746  0.62439601  1
  Ti  Ti10  1  0.50083947  0.00083947  0.99983668  1
  Ti  Ti11  1  0.50205720  0.00205720  0.49994144  1
  Al  Al12  1  0.00010716  0.00010716  0.25223911  1
  Al  Al13  1  0.00211368  0.00211368  0.74925804  1
  Al  Al14  1  0.50000284  0.00000284  0.25233878  1
  Al  Al15  1  0.49775864  0.99775864  0.74925048  1
  N  N16  1  0.16747208  0.66747209  0.43219392  1
  N  N17  1  0.33360884  0.33360883  0.93085271  1
  N  N18  1  0.33388698  0.33388697  0.56704461  1
  N  N19  1  0.66576196  0.66576196  0.43249336  1
  C  C20  1  0.16729765  0.66729766  0.06820761  1
  C  C21  1  0.83311288  0.33311288  0.93087215  1
  C  C22  1  0.83295099  0.33295099  0.56734577  1
  C  C23  1  0.66609677  0.66609677  0.06806602  1
