# generated using pymatgen
data_Ti3AlCN
_symmetry_space_group_name_H-M   'P 1'
_cell_length_a   6.05238064
_cell_length_b   3.02659676
_cell_length_c   18.37133840
_cell_angle_alpha   90.00000001
_cell_angle_beta   90.00068572
_cell_angle_gamma   120.00444254
_symmetry_Int_Tables_number   1
_chemical_formula_structural   Ti3AlCN
_chemical_formula_sum   'Ti12 Al4 C4 N4'
_cell_volume   291.42901072
_cell_formula_units_Z   4
loop_
 _symmetry_equiv_pos_site_id
 _symmetry_equiv_pos_as_xyz
  1  'x, y, z'
loop_
 _atom_site_type_symbol
 _atom_site_label
 _atom_site_symmetry_multiplicity
 _atom_site_fract_x
 _atom_site_fract_y
 _atom_site_fract_z
 _atom_site_occupancy
  Ti  Ti0  1  0.16871890  0.66866305  0.87172775  1
  Ti  Ti1  1  0.33382159  0.33361037  0.37213823  1
  Ti  Ti2  1  0.33363515  0.33381905  0.12910746  1
  Ti  Ti3  1  0.16805250  0.66820494  0.62740661  1
  Ti  Ti4  1  0.00023681  0.00024414  0.99963446  1
  Ti  Ti5  1  0.99906523  0.99913324  0.49990683  1
  Ti  Ti6  1  0.66415042  0.66403974  0.87058061  1
  Ti  Ti7  1  0.83387019  0.33363333  0.37254906  1
  Ti  Ti8  1  0.83297873  0.33295687  0.12860998  1
  Ti  Ti9  1  0.66386231  0.66402250  0.62849869  1
  Ti  Ti10  1  0.50021406  0.00022129  0.99968217  1
  Ti  Ti11  1  0.50131165  0.00129810  0.49997348  1
  Al  Al12  1  0.99988628  0.99987517  0.25156521  1
  Al  Al13  1  0.00206808  0.00206007  0.74942478  1
  Al  Al14  1  0.50029778  0.00044795  0.25164776  1
  Al  Al15  1  0.49763099  0.99758448  0.74941436  1
  N  N16  1  0.16750771  0.66764652  0.43130520  1
  N  N17  1  0.33364864  0.33368658  0.93021417  1
  N  N18  1  0.33383972  0.33377396  0.56800275  1
  N  N19  1  0.66583934  0.66587168  0.43153929  1
  C  C20  1  0.16721254  0.66719864  0.06937932  1
  C  C21  1  0.83311350  0.33318023  0.92980661  1
  C  C22  1  0.83288333  0.33280283  0.56871651  1
  C  C23  1  0.66615459  0.66602529  0.06916871  1
