# generated using pymatgen
data_Ti3AlCN
_symmetry_space_group_name_H-M   'P 1'
_cell_length_a   6.13401445
_cell_length_b   3.06750859
_cell_length_c   18.65245063
_cell_angle_alpha   89.99999998
_cell_angle_beta   90.00143497
_cell_angle_gamma   120.00540751
_symmetry_Int_Tables_number   1
_chemical_formula_structural   Ti3AlCN
_chemical_formula_sum   'Ti12 Al4 C4 N4'
_cell_volume   303.92991307
_cell_formula_units_Z   4
loop_
 _symmetry_equiv_pos_site_id
 _symmetry_equiv_pos_as_xyz
  1  'x, y, z'
loop_
 _atom_site_type_symbol
 _atom_site_label
 _atom_site_symmetry_multiplicity
 _atom_site_fract_x
 _atom_site_fract_y
 _atom_site_fract_z
 _atom_site_occupancy
  Ti  Ti0  1  0.16863855  0.66863856  0.87321227  1
  Ti  Ti1  1  0.33378768  0.33378767  0.37372340  1
  Ti  Ti2  1  0.33359508  0.33359507  0.12757534  1
  Ti  Ti3  1  0.16802352  0.66802353  0.62581924  1
  Ti  Ti4  1  0.00002687  0.00002687  0.99964161  1
  Ti  Ti5  1  0.99879539  0.99879539  0.49994981  1
  Ti  Ti6  1  0.66417924  0.66417924  0.87211421  1
  Ti  Ti7  1  0.83384865  0.33384865  0.37412458  1
  Ti  Ti8  1  0.83301333  0.33301333  0.12710110  1
  Ti  Ti9  1  0.66391750  0.66391750  0.62689220  1
  Ti  Ti10  1  0.50045249  0.00045249  0.99974467  1
  Ti  Ti11  1  0.50161205  0.00161205  0.49995554  1
  Al  Al12  1  0.99995110  0.99995110  0.25180078  1
  Al  Al13  1  0.00211200  0.00211200  0.74936852  1
  Al  Al14  1  0.50020331  0.00020331  0.25187619  1
  Al  Al15  1  0.49764935  0.99764935  0.74936399  1
  N  N16  1  0.16748765  0.66748766  0.43164286  1
  N  N17  1  0.33362428  0.33362427  0.93051059  1
  N  N18  1  0.33386368  0.33386367  0.56762338  1
  N  N19  1  0.66580658  0.66580658  0.43190293  1
  C  C20  1  0.16725859  0.66725860  0.06889450  1
  C  C21  1  0.83310229  0.33310229  0.93027030  1
  C  C22  1  0.83291509  0.33291509  0.56817691  1
  C  C23  1  0.66613575  0.66613575  0.06871506  1
