# generated using pymatgen
data_HfTaTiNbVC5
_symmetry_space_group_name_H-M   'P 1'
_cell_length_a   7.05350925
_cell_length_b   7.03477760
_cell_length_c   4.39498356
_cell_angle_alpha   90.00000000
_cell_angle_beta   90.00000000
_cell_angle_gamma   89.99112999
_symmetry_Int_Tables_number   1
_chemical_formula_structural   HfTaTiNbVC5
_chemical_formula_sum   'Hf2 Ta2 Ti2 Nb2 V2 C10'
_cell_volume   218.07850547
_cell_formula_units_Z   2
loop_
 _symmetry_equiv_pos_site_id
 _symmetry_equiv_pos_as_xyz
  1  'x, y, z'
loop_
 _atom_site_type_symbol
 _atom_site_label
 _atom_site_symmetry_multiplicity
 _atom_site_fract_x
 _atom_site_fract_y
 _atom_site_fract_z
 _atom_site_occupancy
  C  C0  1  0.29518226  0.90455650  0.00000000  1
  C  C1  1  0.50428858  0.49204383  0.00000000  1
  C  C2  1  0.40353518  0.19315003  0.50000000  1
  C  C3  1  0.09610397  0.29765397  0.00000000  1
  C  C4  1  0.99632699  0.99839559  0.50000000  1
  C  C5  1  0.70121977  0.11253784  0.00000000  1
  C  C6  1  0.60170224  0.80780532  0.50000000  1
  C  C7  1  0.19766317  0.60191072  0.50000000  1
  C  C8  1  0.90193267  0.69731820  0.00000000  1
  C  C9  1  0.80405084  0.39359212  0.50000000  1
  Hf  Hf10  1  0.50286028  0.49644205  0.50000000  1
  Hf  Hf11  1  0.59952332  0.80896472  0.00000000  1
  Nb  Nb12  1  0.20164404  0.59529939  0.00000000  1
  Nb  Nb13  1  0.10301946  0.29297806  0.50000000  1
  Ta  Ta14  1  0.89820038  0.69920742  0.50000000  1
  Ta  Ta15  1  0.00103801  0.00421147  0.00000000  1
  Ti  Ti16  1  0.30380146  0.90184868  0.50000000  1
  Ti  Ti17  1  0.40422412  0.19735262  0.00000000  1
  V  V18  1  0.69303333  0.10972844  0.50000000  1
  V  V19  1  0.79064993  0.39500305  0.00000000  1
