# generated using pymatgen
data_Ti4Al2CN
_symmetry_space_group_name_H-M   'P 1'
_cell_length_a   6.06324110
_cell_length_b   3.03229499
_cell_length_c   13.66305402
_cell_angle_alpha   90.00000000
_cell_angle_beta   90.00000000
_cell_angle_gamma   120.00735944
_symmetry_Int_Tables_number   1
_chemical_formula_structural   Ti4Al2CN
_chemical_formula_sum   'Ti8 Al4 C2 N2'
_cell_volume   217.53166921
_cell_formula_units_Z   2
loop_
 _symmetry_equiv_pos_site_id
 _symmetry_equiv_pos_as_xyz
  1  'x, y, z'
loop_
 _atom_site_type_symbol
 _atom_site_label
 _atom_site_symmetry_multiplicity
 _atom_site_fract_x
 _atom_site_fract_y
 _atom_site_fract_z
 _atom_site_occupancy
  Ti  Ti0  1  0.16517159  0.66517160  0.08388059  1
  Ti  Ti1  1  0.33136450  0.33136449  0.58495568  1
  Ti  Ti2  1  0.33136450  0.33136449  0.91504432  1
  Ti  Ti3  1  0.16517159  0.66517160  0.41611941  1
  Ti  Ti4  1  0.66863551  0.66863551  0.08495568  1
  Ti  Ti5  1  0.83482840  0.33482840  0.58388059  1
  Ti  Ti6  1  0.83482840  0.33482840  0.91611941  1
  Ti  Ti7  1  0.66863551  0.66863551  0.41504432  1
  Al  Al8  1  0.16543148  0.66543149  0.75000000  1
  Al  Al9  1  0.33176082  0.33176081  0.25000000  1
  Al  Al10  1  0.66823919  0.66823919  0.75000000  1
  Al  Al11  1  0.83456851  0.33456851  0.25000000  1
  N  N12  1  -0.00000000  0.00000000  0.00000000  1
  N  N13  1  -0.00000000  0.00000000  0.50000000  1
  C  C14  1  0.50000000  0.00000000  0.00000000  1
  C  C15  1  0.50000000  0.00000000  0.50000000  1
