# generated using pymatgen
data_Ti8Al4CN3
_symmetry_space_group_name_H-M   'P 1'
_cell_length_a   5.98628368
_cell_length_b   5.98771193
_cell_length_c   13.53192185
_cell_angle_alpha   90.00000001
_cell_angle_beta   90.00034491
_cell_angle_gamma   120.00789261
_symmetry_Int_Tables_number   1
_chemical_formula_structural   Ti8Al4CN3
_chemical_formula_sum   'Ti16 Al8 C2 N6'
_cell_volume   420.02366355
_cell_formula_units_Z   2
loop_
 _symmetry_equiv_pos_site_id
 _symmetry_equiv_pos_as_xyz
  1  'x, y, z'
loop_
 _atom_site_type_symbol
 _atom_site_label
 _atom_site_symmetry_multiplicity
 _atom_site_fract_x
 _atom_site_fract_y
 _atom_site_fract_z
 _atom_site_occupancy
  Ti  Ti0  1  0.16679435  0.33339718  0.08539951  1
  Ti  Ti1  1  0.33119209  0.16559604  0.58615570  1
  Ti  Ti2  1  0.33345230  0.16672615  0.91440046  1
  Ti  Ti3  1  0.16513265  0.33256634  0.41461505  1
  Ti  Ti4  1  0.16679435  0.83339717  0.08539951  1
  Ti  Ti5  1  0.33119209  0.66559605  0.58615570  1
  Ti  Ti6  1  0.33345230  0.66672616  0.91440046  1
  Ti  Ti7  1  0.16513265  0.83256633  0.41461505  1
  Ti  Ti8  1  0.66654771  0.33327385  0.08559954  1
  Ti  Ti9  1  0.83486734  0.16743366  0.58538495  1
  Ti  Ti10  1  0.83320564  0.16660282  0.91460049  1
  Ti  Ti11  1  0.66880792  0.33440396  0.41384430  1
  Ti  Ti12  1  0.66654771  0.83327384  0.08559954  1
  Ti  Ti13  1  0.83486734  0.66743367  0.58538495  1
  Ti  Ti14  1  0.83320564  0.66660283  0.91460049  1
  Ti  Ti15  1  0.66880792  0.83440395  0.41384430  1
  Al  Al16  1  0.16594258  0.33297130  0.75110060  1
  Al  Al17  1  0.33258514  0.16629255  0.24946469  1
  Al  Al18  1  0.16594258  0.83297129  0.75110060  1
  Al  Al19  1  0.33258514  0.66629256  0.24946469  1
  Al  Al20  1  0.66741487  0.33370745  0.75053531  1
  Al  Al21  1  0.83405741  0.16702870  0.24889940  1
  Al  Al22  1  0.66741487  0.83370744  0.75053531  1
  Al  Al23  1  0.83405741  0.66702871  0.24889940  1
  N  N24  1  0.00000000  0.00000000  0.00000000  1
  N  N25  1  0.00000000  0.00000000  0.50000000  1
  N  N26  1  0.00000000  0.50000000  0.00000000  1
  N  N27  1  0.00000000  0.50000000  0.50000000  1
  N  N28  1  0.50000000  0.00000000  0.00000000  1
  N  N29  1  0.50000000  0.50000000  0.00000000  1
  C  C30  1  0.50000000  0.00000000  0.50000000  1
  C  C31  1  0.50000000  0.50000000  0.50000000  1
