# generated using pymatgen
data_Ti4Al2CN
_symmetry_space_group_name_H-M   'P 1'
_cell_length_a   6.25729417
_cell_length_b   3.13005242
_cell_length_c   14.09801017
_cell_angle_alpha   90.00000000
_cell_angle_beta   90.00000000
_cell_angle_gamma   120.01485993
_symmetry_Int_Tables_number   1
_chemical_formula_structural   Ti4Al2CN
_chemical_formula_sum   'Ti8 Al4 C2 N2'
_cell_volume   239.09009480
_cell_formula_units_Z   2
loop_
 _symmetry_equiv_pos_site_id
 _symmetry_equiv_pos_as_xyz
  1  'x, y, z'
loop_
 _atom_site_type_symbol
 _atom_site_label
 _atom_site_symmetry_multiplicity
 _atom_site_fract_x
 _atom_site_fract_y
 _atom_site_fract_z
 _atom_site_occupancy
  Ti  Ti0  1  0.16533790  0.66533791  0.08067149  1
  Ti  Ti1  1  0.33146240  0.33146239  0.58163539  1
  Ti  Ti2  1  0.33146240  0.33146239  0.91836461  1
  Ti  Ti3  1  0.16533790  0.66533791  0.41932851  1
  Ti  Ti4  1  0.66853761  0.66853761  0.08163539  1
  Ti  Ti5  1  0.83466209  0.33466209  0.58067149  1
  Ti  Ti6  1  0.83466209  0.33466209  0.91932851  1
  Ti  Ti7  1  0.66853761  0.66853761  0.41836461  1
  Al  Al8  1  0.16530700  0.66530701  0.75000000  1
  Al  Al9  1  0.33164026  0.33164025  0.25000000  1
  Al  Al10  1  0.66835975  0.66835975  0.75000000  1
  Al  Al11  1  0.83469299  0.33469299  0.25000000  1
  N  N12  1  0.00000000  0.00000000  -0.00000000  1
  N  N13  1  0.00000000  0.00000000  0.50000000  1
  C  C14  1  0.50000000  0.00000000  -0.00000000  1
  C  C15  1  0.50000000  0.00000000  0.50000000  1
