# generated using pymatgen
data_Ti8Al4CN3
_symmetry_space_group_name_H-M   'P 1'
_cell_length_a   6.02982257
_cell_length_b   6.03131162
_cell_length_c   13.62118331
_cell_angle_alpha   90.00000000
_cell_angle_beta   90.00213604
_cell_angle_gamma   120.00816932
_symmetry_Int_Tables_number   1
_chemical_formula_structural   Ti8Al4CN3
_chemical_formula_sum   'Ti16 Al8 C2 N6'
_cell_volume   428.96910313
_cell_formula_units_Z   2
loop_
 _symmetry_equiv_pos_site_id
 _symmetry_equiv_pos_as_xyz
  1  'x, y, z'
loop_
 _atom_site_type_symbol
 _atom_site_label
 _atom_site_symmetry_multiplicity
 _atom_site_fract_x
 _atom_site_fract_y
 _atom_site_fract_z
 _atom_site_occupancy
  Ti  Ti0  1  0.16680556  0.33340279  0.08481812  1
  Ti  Ti1  1  0.33126016  0.16563007  0.58552129  1
  Ti  Ti2  1  0.33345879  0.16672939  0.91496893  1
  Ti  Ti3  1  0.16523601  0.33261802  0.41519985  1
  Ti  Ti4  1  0.16680556  0.83340278  0.08481812  1
  Ti  Ti5  1  0.33126016  0.66563008  0.58552129  1
  Ti  Ti6  1  0.33345879  0.66672940  0.91496893  1
  Ti  Ti7  1  0.16523601  0.83261801  0.41519985  1
  Ti  Ti8  1  0.66654122  0.33327061  0.08503107  1
  Ti  Ti9  1  0.83476398  0.16738198  0.58480015  1
  Ti  Ti10  1  0.83319443  0.16659721  0.91518188  1
  Ti  Ti11  1  0.66873985  0.33436993  0.41447871  1
  Ti  Ti12  1  0.66654122  0.83327060  0.08503107  1
  Ti  Ti13  1  0.83476398  0.66738199  0.58480015  1
  Ti  Ti14  1  0.83319443  0.66659722  0.91518188  1
  Ti  Ti15  1  0.66873985  0.83436992  0.41447871  1
  Al  Al16  1  0.16597398  0.33298700  0.75110949  1
  Al  Al17  1  0.33260959  0.16630478  0.24947651  1
  Al  Al18  1  0.16597398  0.83298699  0.75110949  1
  Al  Al19  1  0.33260959  0.66630479  0.24947651  1
  Al  Al20  1  0.66739042  0.33369522  0.75052349  1
  Al  Al21  1  0.83402601  0.16701300  0.24889051  1
  Al  Al22  1  0.66739042  0.83369521  0.75052349  1
  Al  Al23  1  0.83402601  0.66701301  0.24889051  1
  N  N24  1  0.00000000  0.00000000  0.00000000  1
  N  N25  1  0.00000000  0.00000000  0.50000000  1
  N  N26  1  0.00000000  0.50000000  0.00000000  1
  N  N27  1  0.00000000  0.50000000  0.50000000  1
  N  N28  1  0.50000000  0.00000000  0.00000000  1
  N  N29  1  0.50000000  0.50000000  0.00000000  1
  C  C30  1  0.50000000  0.00000000  0.50000000  1
  C  C31  1  0.50000000  0.50000000  0.50000000  1
