# generated using pymatgen
data_Ti8Al4CN3
_symmetry_space_group_name_H-M   'P 1'
_cell_length_a   5.94307137
_cell_length_b   5.94444318
_cell_length_c   13.44118076
_cell_angle_alpha   89.99999998
_cell_angle_beta   89.99963409
_cell_angle_gamma   120.00763588
_symmetry_Int_Tables_number   1
_chemical_formula_structural   Ti8Al4CN3
_chemical_formula_sum   'Ti16 Al8 C2 N6'
_cell_volume   411.20345766
_cell_formula_units_Z   2
loop_
 _symmetry_equiv_pos_site_id
 _symmetry_equiv_pos_as_xyz
  1  'x, y, z'
loop_
 _atom_site_type_symbol
 _atom_site_label
 _atom_site_symmetry_multiplicity
 _atom_site_fract_x
 _atom_site_fract_y
 _atom_site_fract_z
 _atom_site_occupancy
  Ti  Ti0  1  0.16679531  0.33339766  0.08595086  1
  Ti  Ti1  1  0.33115105  0.16557552  0.58676710  1
  Ti  Ti2  1  0.33345483  0.16672741  0.91385136  1
  Ti  Ti3  1  0.16507764  0.33253884  0.41402704  1
  Ti  Ti4  1  0.16679531  0.83339765  0.08595086  1
  Ti  Ti5  1  0.33115105  0.66557553  0.58676710  1
  Ti  Ti6  1  0.33345483  0.66672742  0.91385136  1
  Ti  Ti7  1  0.16507764  0.83253883  0.41402704  1
  Ti  Ti8  1  0.66654518  0.33327259  0.08614864  1
  Ti  Ti9  1  0.83492235  0.16746116  0.58597296  1
  Ti  Ti10  1  0.83320468  0.16660234  0.91404914  1
  Ti  Ti11  1  0.66884896  0.33442448  0.41323290  1
  Ti  Ti12  1  0.66654518  0.83327258  0.08614864  1
  Ti  Ti13  1  0.83492235  0.66746117  0.58597296  1
  Ti  Ti14  1  0.83320468  0.66660235  0.91404914  1
  Ti  Ti15  1  0.66884896  0.83442447  0.41323290  1
  Al  Al16  1  0.16595311  0.33297656  0.75108708  1
  Al  Al17  1  0.33259555  0.16629776  0.24947711  1
  Al  Al18  1  0.16595311  0.83297655  0.75108708  1
  Al  Al19  1  0.33259555  0.66629777  0.24947711  1
  Al  Al20  1  0.66740446  0.33370224  0.75052289  1
  Al  Al21  1  0.83404688  0.16702344  0.24891292  1
  Al  Al22  1  0.66740446  0.83370223  0.75052289  1
  Al  Al23  1  0.83404688  0.66702345  0.24891292  1
  N  N24  1  0.00000000  0.00000000  0.00000000  1
  N  N25  1  0.00000000  0.00000000  0.50000000  1
  N  N26  1  0.00000000  0.50000000  0.00000000  1
  N  N27  1  0.00000000  0.50000000  0.50000000  1
  N  N28  1  0.50000000  0.00000000  0.00000000  1
  N  N29  1  0.50000000  0.50000000  0.00000000  1
  C  C30  1  0.50000000  0.00000000  0.50000000  1
  C  C31  1  0.50000000  0.50000000  0.50000000  1
