# generated using pymatgen
data_Ti4Al2CN
_symmetry_space_group_name_H-M   'P 1'
_cell_length_a   6.22124748
_cell_length_b   3.11193285
_cell_length_c   14.01480935
_cell_angle_alpha   90.00000000
_cell_angle_beta   90.00000000
_cell_angle_gamma   120.01392254
_symmetry_Int_Tables_number   1
_chemical_formula_structural   Ti4Al2CN
_chemical_formula_sum   'Ti8 Al4 C2 N2'
_cell_volume   234.94411712
_cell_formula_units_Z   2
loop_
 _symmetry_equiv_pos_site_id
 _symmetry_equiv_pos_as_xyz
  1  'x, y, z'
loop_
 _atom_site_type_symbol
 _atom_site_label
 _atom_site_symmetry_multiplicity
 _atom_site_fract_x
 _atom_site_fract_y
 _atom_site_fract_z
 _atom_site_occupancy
  Ti  Ti0  1  0.16530115  0.66530116  0.08131078  1
  Ti  Ti1  1  0.33144658  0.33144657  0.58229506  1
  Ti  Ti2  1  0.33144658  0.33144657  0.91770494  1
  Ti  Ti3  1  0.16530115  0.66530116  0.41868922  1
  Ti  Ti4  1  0.66855343  0.66855343  0.08229506  1
  Ti  Ti5  1  0.83469884  0.33469884  0.58131078  1
  Ti  Ti6  1  0.83469884  0.33469884  0.91868922  1
  Ti  Ti7  1  0.66855343  0.66855343  0.41770494  1
  Al  Al8  1  0.16532563  0.66532564  0.75000000  1
  Al  Al9  1  0.33166486  0.33166485  0.25000000  1
  Al  Al10  1  0.66833515  0.66833515  0.75000000  1
  Al  Al11  1  0.83467436  0.33467436  0.25000000  1
  N  N12  1  0.00000000  0.00000000  -0.00000000  1
  N  N13  1  0.00000000  0.00000000  0.50000000  1
  C  C14  1  0.50000000  0.00000000  -0.00000000  1
  C  C15  1  0.50000000  0.00000000  0.50000000  1
