# generated using pymatgen
data_HfScTaTiNbC5
_symmetry_space_group_name_H-M   'P 1'
_cell_length_a   7.13513570
_cell_length_b   7.14200341
_cell_length_c   4.50534183
_cell_angle_alpha   90.00000000
_cell_angle_beta   90.00000000
_cell_angle_gamma   89.75747443
_symmetry_Int_Tables_number   1
_chemical_formula_structural   HfScTaTiNbC5
_chemical_formula_sum   'Hf2 Sc2 Ta2 Ti2 Nb2 C10'
_cell_volume   229.58639422
_cell_formula_units_Z   2
loop_
 _symmetry_equiv_pos_site_id
 _symmetry_equiv_pos_as_xyz
  1  'x, y, z'
loop_
 _atom_site_type_symbol
 _atom_site_label
 _atom_site_symmetry_multiplicity
 _atom_site_fract_x
 _atom_site_fract_y
 _atom_site_fract_z
 _atom_site_occupancy
  C  C0  1  0.29545437  0.90242469  0.00000000  1
  C  C1  1  0.48932007  0.49345567  0.00000000  1
  C  C2  1  0.39192846  0.19379541  0.50000000  1
  C  C3  1  0.10619863  0.29714254  0.00000000  1
  C  C4  1  0.00746250  0.99906695  0.50000000  1
  C  C5  1  0.70267107  0.09750664  0.00000000  1
  C  C6  1  0.59681958  0.79736163  0.50000000  1
  C  C7  1  0.19716738  0.60363759  0.50000000  1
  C  C8  1  0.90494563  0.70549893  0.00000000  1
  C  C9  1  0.80917473  0.40915122  0.50000000  1
  Hf  Hf10  1  0.49794597  0.49647591  0.50000000  1
  Hf  Hf11  1  0.59825575  0.80293837  0.00000000  1
  Nb  Nb12  1  0.19994611  0.59957422  0.00000000  1
  Nb  Nb13  1  0.10058301  0.29702992  0.50000000  1
  Ta  Ta14  1  0.90035826  0.70039470  0.50000000  1
  Ta  Ta15  1  0.99913117  0.00437559  0.00000000  1
  Ti  Ti16  1  0.30335676  0.90181633  0.50000000  1
  Ti  Ti17  1  0.39996368  0.19608578  0.00000000  1
  Sc  Sc18  1  0.69904877  0.10255238  0.50000000  1
  Sc  Sc19  1  0.80026810  0.39971551  0.00000000  1
