# generated using pymatgen
data_Ti4Al2CN
_symmetry_space_group_name_H-M   'P 1'
_cell_length_a   6.10679691
_cell_length_b   3.05397823
_cell_length_c   13.75397878
_cell_angle_alpha   90.00000000
_cell_angle_beta   90.00000000
_cell_angle_gamma   120.00628121
_symmetry_Int_Tables_number   1
_chemical_formula_structural   Ti4Al2CN
_chemical_formula_sum   'Ti8 Al4 C2 N2'
_cell_volume   222.13188581
_cell_formula_units_Z   2
loop_
 _symmetry_equiv_pos_site_id
 _symmetry_equiv_pos_as_xyz
  1  'x, y, z'
loop_
 _atom_site_type_symbol
 _atom_site_label
 _atom_site_symmetry_multiplicity
 _atom_site_fract_x
 _atom_site_fract_y
 _atom_site_fract_z
 _atom_site_occupancy
  Ti  Ti0  1  0.16521031  0.66521032  0.08319493  1
  Ti  Ti1  1  0.33138511  0.33138510  0.58424345  1
  Ti  Ti2  1  0.33138511  0.33138510  0.91575655  1
  Ti  Ti3  1  0.16521031  0.66521032  0.41680507  1
  Ti  Ti4  1  0.66861490  0.66861490  0.08424345  1
  Ti  Ti5  1  0.83478968  0.33478968  0.58319493  1
  Ti  Ti6  1  0.83478968  0.33478968  0.91680507  1
  Ti  Ti7  1  0.66861490  0.66861490  0.41575655  1
  Al  Al8  1  0.16541174  0.66541175  0.75000000  1
  Al  Al9  1  0.33173747  0.33173746  0.25000000  1
  Al  Al10  1  0.66826254  0.66826254  0.75000000  1
  Al  Al11  1  0.83458825  0.33458825  0.25000000  1
  N  N12  1  -0.00000000  0.00000000  0.00000000  1
  N  N13  1  -0.00000000  0.00000000  0.50000000  1
  C  C14  1  0.50000000  0.00000000  0.00000000  1
  C  C15  1  0.50000000  0.00000000  0.50000000  1
