# generated using pymatgen
data_Ti4Al2CN
_symmetry_space_group_name_H-M   'P 1'
_cell_length_a   6.02316653
_cell_length_b   3.01569855
_cell_length_c   13.54642984
_cell_angle_alpha   90.00000000
_cell_angle_beta   90.00000000
_cell_angle_gamma   120.04521310
_symmetry_Int_Tables_number   1
_chemical_formula_structural   Ti4Al2CN
_chemical_formula_sum   'Ti8 Al4 C2 N2'
_cell_volume   212.99540668
_cell_formula_units_Z   2
loop_
 _symmetry_equiv_pos_site_id
 _symmetry_equiv_pos_as_xyz
  1  'x, y, z'
loop_
 _atom_site_type_symbol
 _atom_site_label
 _atom_site_symmetry_multiplicity
 _atom_site_fract_x
 _atom_site_fract_y
 _atom_site_fract_z
 _atom_site_occupancy
  Ti  Ti0  1  0.16511948  0.66511949  0.08457888  1
  Ti  Ti1  1  0.33131608  0.33131607  0.58566709  1
  Ti  Ti2  1  0.33131608  0.33131607  0.91433291  1
  Ti  Ti3  1  0.16511948  0.66511949  0.41542112  1
  Ti  Ti4  1  0.66868393  0.66868393  0.08566709  1
  Ti  Ti5  1  0.83488051  0.33488051  0.58457888  1
  Ti  Ti6  1  0.83488051  0.33488051  0.91542112  1
  Ti  Ti7  1  0.66868393  0.66868393  0.41433291  1
  Al  Al8  1  0.16552945  0.66552946  0.75000000  1
  Al  Al9  1  0.33180969  0.33180968  0.25000000  1
  Al  Al10  1  0.66819032  0.66819032  0.75000000  1
  Al  Al11  1  0.83447054  0.33447054  0.25000000  1
  N  N12  1  0.00000000  0.00000000  0.00000000  1
  N  N13  1  0.00000000  0.00000000  0.50000000  1
  C  C14  1  0.50000000  0.00000000  0.00000000  1
  C  C15  1  0.50000000  0.00000000  0.50000000  1
