# generated using pymatgen
data_Ti4Al2CN
_symmetry_space_group_name_H-M   'P 1'
_cell_length_a   6.18816582
_cell_length_b   3.09464610
_cell_length_c   13.92021031
_cell_angle_alpha   90.00000000
_cell_angle_beta   90.00000000
_cell_angle_gamma   120.00602147
_symmetry_Int_Tables_number   1
_chemical_formula_structural   Ti4Al2CN
_chemical_formula_sum   'Ti8 Al4 C2 N2'
_cell_volume   230.84634758
_cell_formula_units_Z   2
loop_
 _symmetry_equiv_pos_site_id
 _symmetry_equiv_pos_as_xyz
  1  'x, y, z'
loop_
 _atom_site_type_symbol
 _atom_site_label
 _atom_site_symmetry_multiplicity
 _atom_site_fract_x
 _atom_site_fract_y
 _atom_site_fract_z
 _atom_site_occupancy
  Ti  Ti0  1  0.16526677  0.66526678  0.08195068  1
  Ti  Ti1  1  0.33140357  0.33140356  0.58295495  1
  Ti  Ti2  1  0.33140357  0.33140356  0.91704505  1
  Ti  Ti3  1  0.16526677  0.66526678  0.41804932  1
  Ti  Ti4  1  0.66859644  0.66859644  0.08295495  1
  Ti  Ti5  1  0.83473322  0.33473322  0.58195068  1
  Ti  Ti6  1  0.83473322  0.33473322  0.91804932  1
  Ti  Ti7  1  0.66859644  0.66859644  0.41704505  1
  Al  Al8  1  0.16536788  0.66536789  0.75000000  1
  Al  Al9  1  0.33168523  0.33168522  0.25000000  1
  Al  Al10  1  0.66831478  0.66831478  0.75000000  1
  Al  Al11  1  0.83463211  0.33463211  0.25000000  1
  N  N12  1  -0.00000000  -0.00000000  0.00000000  1
  N  N13  1  -0.00000000  -0.00000000  0.50000000  1
  C  C14  1  0.50000000  -0.00000000  0.00000000  1
  C  C15  1  0.50000000  -0.00000000  0.50000000  1
