# generated using pymatgen
data_Ti8Al4C3N
_symmetry_space_group_name_H-M   'P 1'
_cell_length_a   6.17661845
_cell_length_b   6.17661843
_cell_length_c   13.88311137
_cell_angle_alpha   90.00000000
_cell_angle_beta   90.00000000
_cell_angle_gamma   120.00160107
_symmetry_Int_Tables_number   1
_chemical_formula_structural   Ti8Al4C3N
_chemical_formula_sum   'Ti16 Al8 C6 N2'
_cell_volume   458.68229821
_cell_formula_units_Z   2
loop_
 _symmetry_equiv_pos_site_id
 _symmetry_equiv_pos_as_xyz
  1  'x, y, z'
loop_
 _atom_site_type_symbol
 _atom_site_label
 _atom_site_symmetry_multiplicity
 _atom_site_fract_x
 _atom_site_fract_y
 _atom_site_fract_z
 _atom_site_occupancy
  Ti  Ti0  1  0.16843141  0.33420727  0.08225040  1
  Ti  Ti1  1  0.33156859  0.16579273  0.58225040  1
  Ti  Ti2  1  0.33420727  0.16843141  0.91774960  1
  Ti  Ti3  1  0.16579273  0.33156859  0.41774960  1
  Ti  Ti4  1  0.16667605  0.83332394  0.08322497  1
  Ti  Ti5  1  0.33332395  0.66667606  0.58322497  1
  Ti  Ti6  1  0.33419674  0.66580327  0.91755040  1
  Ti  Ti7  1  0.16580326  0.83419673  0.41755040  1
  Ti  Ti8  1  0.66580327  0.33419674  0.08244960  1
  Ti  Ti9  1  0.83419673  0.16580326  0.58244960  1
  Ti  Ti10  1  0.83332394  0.16667605  0.91677503  1
  Ti  Ti11  1  0.66667606  0.33332395  0.41677503  1
  Ti  Ti12  1  0.66579274  0.83156858  0.08225040  1
  Ti  Ti13  1  0.83420726  0.66843142  0.58225040  1
  Ti  Ti14  1  0.83156858  0.66579274  0.91774960  1
  Ti  Ti15  1  0.66843142  0.83420726  0.41774960  1
  Al  Al16  1  0.16715212  0.33284788  0.75000000  1
  Al  Al17  1  0.33284788  0.16715212  0.25000000  1
  Al  Al18  1  0.16618325  0.83381674  0.75057976  1
  Al  Al19  1  0.33381675  0.66618326  0.25057976  1
  Al  Al20  1  0.66618326  0.33381675  0.74942024  1
  Al  Al21  1  0.83381674  0.16618325  0.24942024  1
  Al  Al22  1  0.66715213  0.83284787  0.75000000  1
  Al  Al23  1  0.83284787  0.66715213  0.25000000  1
  C  C24  1  -0.00000000  0.00000000  -0.00000000  1
  C  C25  1  -0.00000000  0.50000000  -0.00000000  1
  C  C26  1  -0.00000000  0.50000000  0.50000000  1
  C  C27  1  0.50000000  0.00000000  -0.00000000  1
  C  C28  1  0.50000000  0.00000000  0.50000000  1
  C  C29  1  0.50000000  0.50000000  0.50000000  1
  N  N30  1  -0.00000000  0.00000000  0.50000000  1
  N  N31  1  0.50000000  0.50000000  -0.00000000  1
