# generated using pymatgen
data_Ti8Al4CN3
_symmetry_space_group_name_H-M   'P 1'
_cell_length_a   6.06412303
_cell_length_b   6.06519275
_cell_length_c   13.75297722
_cell_angle_alpha   90.00000001
_cell_angle_beta   90.00224372
_cell_angle_gamma   120.00583548
_symmetry_Int_Tables_number   1
_chemical_formula_structural   Ti8Al4CN3
_chemical_formula_sum   'Ti16 Al8 C2 N6'
_cell_volume   438.04066100
_cell_formula_units_Z   2
loop_
 _symmetry_equiv_pos_site_id
 _symmetry_equiv_pos_as_xyz
  1  'x, y, z'
loop_
 _atom_site_type_symbol
 _atom_site_label
 _atom_site_symmetry_multiplicity
 _atom_site_fract_x
 _atom_site_fract_y
 _atom_site_fract_z
 _atom_site_occupancy
  Ti  Ti0  1  0.16678505  0.33339253  0.08415846  1
  Ti  Ti1  1  0.33129405  0.16564702  0.58488492  1
  Ti  Ti2  1  0.33343573  0.16671786  0.91564817  1
  Ti  Ti3  1  0.16521097  0.33260550  0.41589462  1
  Ti  Ti4  1  0.16678505  0.83339252  0.08415846  1
  Ti  Ti5  1  0.33129405  0.66564703  0.58488492  1
  Ti  Ti6  1  0.33343573  0.66671787  0.91564817  1
  Ti  Ti7  1  0.16521097  0.83260549  0.41589462  1
  Ti  Ti8  1  0.66656428  0.33328214  0.08435183  1
  Ti  Ti9  1  0.83478902  0.16739450  0.58410538  1
  Ti  Ti10  1  0.83321494  0.16660747  0.91584154  1
  Ti  Ti11  1  0.66870596  0.33435298  0.41511508  1
  Ti  Ti12  1  0.66656428  0.83328213  0.08435183  1
  Ti  Ti13  1  0.83478902  0.66739451  0.58410538  1
  Ti  Ti14  1  0.83321494  0.66660748  0.91584154  1
  Ti  Ti15  1  0.66870596  0.83435297  0.41511508  1
  Al  Al16  1  0.16590588  0.33295294  0.75123414  1
  Al  Al17  1  0.33256530  0.16628264  0.24933521  1
  Al  Al18  1  0.16590588  0.83295293  0.75123414  1
  Al  Al19  1  0.33256530  0.66628265  0.24933521  1
  Al  Al20  1  0.66743471  0.33371736  0.75066479  1
  Al  Al21  1  0.83409411  0.16704706  0.24876586  1
  Al  Al22  1  0.66743471  0.83371735  0.75066479  1
  Al  Al23  1  0.83409411  0.66704707  0.24876586  1
  N  N24  1  0.00000000  0.00000000  -0.00000000  1
  N  N25  1  0.00000000  0.00000000  0.50000000  1
  N  N26  1  0.00000000  0.50000000  -0.00000000  1
  N  N27  1  0.00000000  0.50000000  0.50000000  1
  N  N28  1  0.50000000  0.00000000  -0.00000000  1
  N  N29  1  0.50000000  0.50000000  -0.00000000  1
  C  C30  1  0.50000000  0.00000000  0.50000000  1
  C  C31  1  0.50000000  0.50000000  0.50000000  1
