# generated using pymatgen
data_Ti8Al4C3N
_symmetry_space_group_name_H-M   'P 1'
_cell_length_a   6.05611688
_cell_length_b   6.05611688
_cell_length_c   13.60245743
_cell_angle_alpha   90.00000000
_cell_angle_beta   90.00000000
_cell_angle_gamma   120.00116857
_symmetry_Int_Tables_number   1
_chemical_formula_structural   Ti8Al4C3N
_chemical_formula_sum   'Ti16 Al8 C6 N2'
_cell_volume   432.04739387
_cell_formula_units_Z   2
loop_
 _symmetry_equiv_pos_site_id
 _symmetry_equiv_pos_as_xyz
  1  'x, y, z'
loop_
 _atom_site_type_symbol
 _atom_site_label
 _atom_site_symmetry_multiplicity
 _atom_site_fract_x
 _atom_site_fract_y
 _atom_site_fract_z
 _atom_site_occupancy
  Ti  Ti0  1  0.16853610  0.33427391  0.08410009  1
  Ti  Ti1  1  0.33146390  0.16572609  0.58410009  1
  Ti  Ti2  1  0.33427391  0.16853610  0.91589991  1
  Ti  Ti3  1  0.16572609  0.33146390  0.41589991  1
  Ti  Ti4  1  0.16668628  0.83331371  0.08512745  1
  Ti  Ti5  1  0.33331372  0.66668629  0.58512745  1
  Ti  Ti6  1  0.33424661  0.66575340  0.91567932  1
  Ti  Ti7  1  0.16575339  0.83424660  0.41567932  1
  Ti  Ti8  1  0.66575340  0.33424661  0.08432068  1
  Ti  Ti9  1  0.83424660  0.16575339  0.58432068  1
  Ti  Ti10  1  0.83331371  0.16668628  0.91487255  1
  Ti  Ti11  1  0.66668629  0.33331372  0.41487255  1
  Ti  Ti12  1  0.66572610  0.83146389  0.08410009  1
  Ti  Ti13  1  0.83427390  0.66853611  0.58410009  1
  Ti  Ti14  1  0.83146389  0.66572610  0.91589991  1
  Ti  Ti15  1  0.66853611  0.83427390  0.41589991  1
  Al  Al16  1  0.16712000  0.33288000  0.75000000  1
  Al  Al17  1  0.33288000  0.16712000  0.25000000  1
  Al  Al18  1  0.16621556  0.83378443  0.75059589  1
  Al  Al19  1  0.33378444  0.66621557  0.25059589  1
  Al  Al20  1  0.66621557  0.33378444  0.74940411  1
  Al  Al21  1  0.83378443  0.16621556  0.24940411  1
  Al  Al22  1  0.66712001  0.83287999  0.75000000  1
  Al  Al23  1  0.83287999  0.66712001  0.25000000  1
  C  C24  1  0.00000000  0.00000000  0.00000000  1
  C  C25  1  0.00000000  0.50000000  0.00000000  1
  C  C26  1  0.00000000  0.50000000  0.50000000  1
  C  C27  1  0.50000000  0.00000000  0.00000000  1
  C  C28  1  0.50000000  0.00000000  0.50000000  1
  C  C29  1  0.50000000  0.50000000  0.50000000  1
  N  N30  1  0.00000000  0.00000000  0.50000000  1
  N  N31  1  0.50000000  0.50000000  0.00000000  1
