# generated using pymatgen
data_Ti8Al4CN3
_symmetry_space_group_name_H-M   'P 1'
_cell_length_a   6.21568096
_cell_length_b   6.21726002
_cell_length_c   14.08910846
_cell_angle_alpha   90.00000001
_cell_angle_beta   90.00170967
_cell_angle_gamma   120.00840408
_symmetry_Int_Tables_number   1
_chemical_formula_structural   Ti8Al4CN3
_chemical_formula_sum   'Ti16 Al8 C2 N6'
_cell_volume   471.48198678
_cell_formula_units_Z   2
loop_
 _symmetry_equiv_pos_site_id
 _symmetry_equiv_pos_as_xyz
  1  'x, y, z'
loop_
 _atom_site_type_symbol
 _atom_site_label
 _atom_site_symmetry_multiplicity
 _atom_site_fract_x
 _atom_site_fract_y
 _atom_site_fract_z
 _atom_site_occupancy
  Ti  Ti0  1  0.16675231  0.33337616  0.08172550  1
  Ti  Ti1  1  0.33138718  0.16569358  0.58239000  1
  Ti  Ti2  1  0.33339332  0.16669665  0.91808852  1
  Ti  Ti3  1  0.16532129  0.33266066  0.41832577  1
  Ti  Ti4  1  0.16675231  0.83337615  0.08172550  1
  Ti  Ti5  1  0.33138718  0.66569359  0.58239000  1
  Ti  Ti6  1  0.33339332  0.66669666  0.91808852  1
  Ti  Ti7  1  0.16532129  0.83266065  0.41832577  1
  Ti  Ti8  1  0.66660669  0.33330335  0.08191148  1
  Ti  Ti9  1  0.83467870  0.16733934  0.58167423  1
  Ti  Ti10  1  0.83324768  0.16662384  0.91827450  1
  Ti  Ti11  1  0.66861283  0.33430642  0.41761000  1
  Ti  Ti12  1  0.66660669  0.83330334  0.08191148  1
  Ti  Ti13  1  0.83467870  0.66733935  0.58167423  1
  Ti  Ti14  1  0.83324768  0.66662385  0.91827450  1
  Ti  Ti15  1  0.66861283  0.83430641  0.41761000  1
  Al  Al16  1  0.16587317  0.33293659  0.75134766  1
  Al  Al17  1  0.33252581  0.16626289  0.24922872  1
  Al  Al18  1  0.16587317  0.83293658  0.75134766  1
  Al  Al19  1  0.33252581  0.66626290  0.24922872  1
  Al  Al20  1  0.66747420  0.33373711  0.75077128  1
  Al  Al21  1  0.83412682  0.16706341  0.24865234  1
  Al  Al22  1  0.66747420  0.83373710  0.75077128  1
  Al  Al23  1  0.83412682  0.66706342  0.24865234  1
  N  N24  1  0.00000000  -0.00000000  0.00000000  1
  N  N25  1  0.00000000  -0.00000000  0.50000000  1
  N  N26  1  0.00000000  0.50000000  0.00000000  1
  N  N27  1  0.00000000  0.50000000  0.50000000  1
  N  N28  1  0.50000000  -0.00000000  0.00000000  1
  N  N29  1  0.50000000  0.50000000  0.00000000  1
  C  C30  1  0.50000000  -0.00000000  0.50000000  1
  C  C31  1  0.50000000  0.50000000  0.50000000  1
