# generated using pymatgen
data_HfTaTiNbNiC5
_symmetry_space_group_name_H-M   'P 1'
_cell_length_a   7.02708085
_cell_length_b   7.02810826
_cell_length_c   4.44401099
_cell_angle_alpha   90.00000000
_cell_angle_beta   90.00000000
_cell_angle_gamma   89.56851374
_symmetry_Int_Tables_number   1
_chemical_formula_structural   HfTaTiNbNiC5
_chemical_formula_sum   'Hf2 Ta2 Ti2 Nb2 Ni2 C10'
_cell_volume   219.47052484
_cell_formula_units_Z   2
loop_
 _symmetry_equiv_pos_site_id
 _symmetry_equiv_pos_as_xyz
  1  'x, y, z'
loop_
 _atom_site_type_symbol
 _atom_site_label
 _atom_site_symmetry_multiplicity
 _atom_site_fract_x
 _atom_site_fract_y
 _atom_site_fract_z
 _atom_site_occupancy
  C  C0  1  0.29904755  0.90629777  0.00000000  1
  C  C1  1  0.49859423  0.48917668  0.00000000  1
  C  C2  1  0.40384219  0.19097016  0.50000000  1
  C  C3  1  0.08873879  0.30358547  0.00000000  1
  C  C4  1  0.99669073  0.00306724  0.50000000  1
  C  C5  1  0.69930003  0.11119683  0.00000000  1
  C  C6  1  0.59903845  0.79978033  0.50000000  1
  C  C7  1  0.19913378  0.60453844  0.50000000  1
  C  C8  1  0.90659422  0.70416056  0.00000000  1
  C  C9  1  0.80854602  0.39792652  0.50000000  1
  Hf  Hf10  1  0.50802542  0.48624943  0.50000000  1
  Hf  Hf11  1  0.60451150  0.80477610  0.00000000  1
  Nb  Nb12  1  0.19750624  0.59916361  0.00000000  1
  Nb  Nb13  1  0.08617148  0.30075214  0.50000000  1
  Ta  Ta14  1  0.89988531  0.71182447  0.50000000  1
  Ta  Ta15  1  0.00402772  0.01222536  0.00000000  1
  Ti  Ti16  1  0.31117788  0.90040729  0.50000000  1
  Ti  Ti17  1  0.41394334  0.19364591  0.00000000  1
  Ni  Ni18  1  0.68893409  0.09715539  0.50000000  1
  Ni  Ni19  1  0.78629101  0.38310032  0.00000000  1
