# generated using pymatgen
data_Ti8Al4CN3
_symmetry_space_group_name_H-M   'P 1'
_cell_length_a   6.10079201
_cell_length_b   6.10197470
_cell_length_c   13.83232436
_cell_angle_alpha   90.00000001
_cell_angle_beta   90.00195150
_cell_angle_gamma   120.00641291
_symmetry_Int_Tables_number   1
_chemical_formula_structural   Ti8Al4CN3
_chemical_formula_sum   'Ti16 Al8 C2 N6'
_cell_volume   445.91732808
_cell_formula_units_Z   2
loop_
 _symmetry_equiv_pos_site_id
 _symmetry_equiv_pos_as_xyz
  1  'x, y, z'
loop_
 _atom_site_type_symbol
 _atom_site_label
 _atom_site_symmetry_multiplicity
 _atom_site_fract_x
 _atom_site_fract_y
 _atom_site_fract_z
 _atom_site_occupancy
  Ti  Ti0  1  0.16677727  0.33338865  0.08357950  1
  Ti  Ti1  1  0.33131709  0.16565854  0.58428719  1
  Ti  Ti2  1  0.33342591  0.16671295  0.91622446  1
  Ti  Ti3  1  0.16524173  0.33262089  0.41647797  1
  Ti  Ti4  1  0.16677727  0.83338864  0.08357950  1
  Ti  Ti5  1  0.33131709  0.66565855  0.58428719  1
  Ti  Ti6  1  0.33342591  0.66671296  0.91622446  1
  Ti  Ti7  1  0.16524173  0.83262088  0.41647797  1
  Ti  Ti8  1  0.66657410  0.33328705  0.08377554  1
  Ti  Ti9  1  0.83475826  0.16737911  0.58352203  1
  Ti  Ti10  1  0.83322272  0.16661135  0.91642050  1
  Ti  Ti11  1  0.66868292  0.33434146  0.41571281  1
  Ti  Ti12  1  0.66657410  0.83328704  0.08377554  1
  Ti  Ti13  1  0.83475826  0.66737912  0.58352203  1
  Ti  Ti14  1  0.83322272  0.66661136  0.91642050  1
  Ti  Ti15  1  0.66868292  0.83434145  0.41571281  1
  Al  Al16  1  0.16590022  0.33295012  0.75125655  1
  Al  Al17  1  0.33255753  0.16627875  0.24931413  1
  Al  Al18  1  0.16590022  0.83295011  0.75125655  1
  Al  Al19  1  0.33255753  0.66627876  0.24931413  1
  Al  Al20  1  0.66744248  0.33372125  0.75068587  1
  Al  Al21  1  0.83409977  0.16704988  0.24874345  1
  Al  Al22  1  0.66744248  0.83372124  0.75068587  1
  Al  Al23  1  0.83409977  0.66704989  0.24874345  1
  N  N24  1  -0.00000000  -0.00000000  -0.00000000  1
  N  N25  1  -0.00000000  -0.00000000  0.50000000  1
  N  N26  1  -0.00000000  0.50000000  -0.00000000  1
  N  N27  1  -0.00000000  0.50000000  0.50000000  1
  N  N28  1  0.50000000  -0.00000000  -0.00000000  1
  N  N29  1  0.50000000  0.50000000  -0.00000000  1
  C  C30  1  0.50000000  -0.00000000  0.50000000  1
  C  C31  1  0.50000000  0.50000000  0.50000000  1
