# generated using pymatgen
data_Ti8Al4C3N
_symmetry_space_group_name_H-M   'P 1'
_cell_length_a   6.14388514
_cell_length_b   6.14388514
_cell_length_c   13.78357646
_cell_angle_alpha   90.00000000
_cell_angle_beta   90.00000000
_cell_angle_gamma   120.00152449
_symmetry_Int_Tables_number   1
_chemical_formula_structural   Ti8Al4C3N
_chemical_formula_sum   'Ti16 Al8 C6 N2'
_cell_volume   450.58015024
_cell_formula_units_Z   2
loop_
 _symmetry_equiv_pos_site_id
 _symmetry_equiv_pos_as_xyz
  1  'x, y, z'
loop_
 _atom_site_type_symbol
 _atom_site_label
 _atom_site_symmetry_multiplicity
 _atom_site_fract_x
 _atom_site_fract_y
 _atom_site_fract_z
 _atom_site_occupancy
  Ti  Ti0  1  0.16846580  0.33423105  0.08284181  1
  Ti  Ti1  1  0.33153420  0.16576895  0.58284181  1
  Ti  Ti2  1  0.33423105  0.16846580  0.91715819  1
  Ti  Ti3  1  0.16576895  0.33153420  0.41715819  1
  Ti  Ti4  1  0.16668043  0.83331956  0.08383087  1
  Ti  Ti5  1  0.33331957  0.66668044  0.58383087  1
  Ti  Ti6  1  0.33421200  0.66578801  0.91694852  1
  Ti  Ti7  1  0.16578800  0.83421199  0.41694852  1
  Ti  Ti8  1  0.66578801  0.33421200  0.08305148  1
  Ti  Ti9  1  0.83421199  0.16578800  0.58305148  1
  Ti  Ti10  1  0.83331956  0.16668043  0.91616913  1
  Ti  Ti11  1  0.66668044  0.33331957  0.41616913  1
  Ti  Ti12  1  0.66576896  0.83153419  0.08284181  1
  Ti  Ti13  1  0.83423104  0.66846581  0.58284181  1
  Ti  Ti14  1  0.83153419  0.66576896  0.91715819  1
  Ti  Ti15  1  0.66846581  0.83423104  0.41715819  1
  Al  Al16  1  0.16713034  0.33286966  0.75000000  1
  Al  Al17  1  0.33286966  0.16713034  0.25000000  1
  Al  Al18  1  0.16620519  0.83379480  0.75058330  1
  Al  Al19  1  0.33379481  0.66620520  0.25058330  1
  Al  Al20  1  0.66620520  0.33379481  0.74941670  1
  Al  Al21  1  0.83379480  0.16620519  0.24941670  1
  Al  Al22  1  0.66713035  0.83286965  0.75000000  1
  Al  Al23  1  0.83286965  0.66713035  0.25000000  1
  C  C24  1  0.00000000  0.00000000  -0.00000000  1
  C  C25  1  0.00000000  0.50000000  -0.00000000  1
  C  C26  1  0.00000000  0.50000000  0.50000000  1
  C  C27  1  0.50000000  0.00000000  -0.00000000  1
  C  C28  1  0.50000000  0.00000000  0.50000000  1
  C  C29  1  0.50000000  0.50000000  0.50000000  1
  N  N30  1  0.00000000  0.00000000  0.50000000  1
  N  N31  1  0.50000000  0.50000000  -0.00000000  1
