# generated using pymatgen
data_Ti8Al4C3N
_symmetry_space_group_name_H-M   'P 1'
_cell_length_a   6.02625877
_cell_length_b   6.02625876
_cell_length_c   13.44915389
_cell_angle_alpha   90.00000000
_cell_angle_beta   90.00000000
_cell_angle_gamma   120.00154406
_symmetry_Int_Tables_number   1
_chemical_formula_structural   Ti8Al4C3N
_chemical_formula_sum   'Ti16 Al8 C6 N2'
_cell_volume   422.97469829
_cell_formula_units_Z   2
loop_
 _symmetry_equiv_pos_site_id
 _symmetry_equiv_pos_as_xyz
  1  'x, y, z'
loop_
 _atom_site_type_symbol
 _atom_site_label
 _atom_site_symmetry_multiplicity
 _atom_site_fract_x
 _atom_site_fract_y
 _atom_site_fract_z
 _atom_site_occupancy
  Ti  Ti0  1  0.16856226  0.33429501  0.08477259  1
  Ti  Ti1  1  0.33143774  0.16570499  0.58477259  1
  Ti  Ti2  1  0.33429501  0.16856226  0.91522741  1
  Ti  Ti3  1  0.16570499  0.33143774  0.41522741  1
  Ti  Ti4  1  0.16669000  0.83330999  0.08582737  1
  Ti  Ti5  1  0.33331000  0.66669001  0.58582737  1
  Ti  Ti6  1  0.33425880  0.66574121  0.91499534  1
  Ti  Ti7  1  0.16574120  0.83425879  0.41499534  1
  Ti  Ti8  1  0.66574121  0.33425880  0.08500466  1
  Ti  Ti9  1  0.83425879  0.16574120  0.58500466  1
  Ti  Ti10  1  0.83330999  0.16669000  0.91417263  1
  Ti  Ti11  1  0.66669001  0.33331000  0.41417263  1
  Ti  Ti12  1  0.66570500  0.83143773  0.08477259  1
  Ti  Ti13  1  0.83429500  0.66856227  0.58477259  1
  Ti  Ti14  1  0.83143773  0.66570500  0.91522741  1
  Ti  Ti15  1  0.66856227  0.83429500  0.41522741  1
  Al  Al16  1  0.16712214  0.33287786  0.75000000  1
  Al  Al17  1  0.33287786  0.16712214  0.25000000  1
  Al  Al18  1  0.16621456  0.83378543  0.75059931  1
  Al  Al19  1  0.33378544  0.66621457  0.25059931  1
  Al  Al20  1  0.66621457  0.33378544  0.74940069  1
  Al  Al21  1  0.83378543  0.16621456  0.24940069  1
  Al  Al22  1  0.66712215  0.83287785  0.75000000  1
  Al  Al23  1  0.83287785  0.66712215  0.25000000  1
  C  C24  1  0.00000000  0.00000000  0.00000000  1
  C  C25  1  0.00000000  0.50000000  0.00000000  1
  C  C26  1  0.00000000  0.50000000  0.50000000  1
  C  C27  1  0.50000000  0.00000000  0.00000000  1
  C  C28  1  0.50000000  0.00000000  0.50000000  1
  C  C29  1  0.50000000  0.50000000  0.50000000  1
  N  N30  1  0.00000000  0.00000000  0.50000000  1
  N  N31  1  0.50000000  0.50000000  0.00000000  1
