# generated using pymatgen
data_Ti8Al4C3N
_symmetry_space_group_name_H-M   'P 1'
_cell_length_a   6.09969192
_cell_length_b   6.09969191
_cell_length_c   13.69440371
_cell_angle_alpha   90.00000000
_cell_angle_beta   90.00000000
_cell_angle_gamma   120.00135171
_symmetry_Int_Tables_number   1
_chemical_formula_structural   Ti8Al4C3N
_chemical_formula_sum   'Ti16 Al8 C6 N2'
_cell_volume   441.24890768
_cell_formula_units_Z   2
loop_
 _symmetry_equiv_pos_site_id
 _symmetry_equiv_pos_as_xyz
  1  'x, y, z'
loop_
 _atom_site_type_symbol
 _atom_site_label
 _atom_site_symmetry_multiplicity
 _atom_site_fract_x
 _atom_site_fract_y
 _atom_site_fract_z
 _atom_site_occupancy
  Ti  Ti0  1  0.16850666  0.33425496  0.08347616  1
  Ti  Ti1  1  0.33149334  0.16574504  0.58347616  1
  Ti  Ti2  1  0.33425496  0.16850666  0.91652384  1
  Ti  Ti3  1  0.16574504  0.33149334  0.41652384  1
  Ti  Ti4  1  0.16668301  0.83331698  0.08448419  1
  Ti  Ti5  1  0.33331699  0.66668302  0.58448419  1
  Ti  Ti6  1  0.33423142  0.66576859  0.91630862  1
  Ti  Ti7  1  0.16576858  0.83423141  0.41630862  1
  Ti  Ti8  1  0.66576859  0.33423142  0.08369138  1
  Ti  Ti9  1  0.83423141  0.16576858  0.58369138  1
  Ti  Ti10  1  0.83331698  0.16668301  0.91551581  1
  Ti  Ti11  1  0.66668302  0.33331699  0.41551581  1
  Ti  Ti12  1  0.66574505  0.83149333  0.08347616  1
  Ti  Ti13  1  0.83425495  0.66850667  0.58347616  1
  Ti  Ti14  1  0.83149333  0.66574505  0.91652384  1
  Ti  Ti15  1  0.66850667  0.83425495  0.41652384  1
  Al  Al16  1  0.16712593  0.33287407  0.75000000  1
  Al  Al17  1  0.33287407  0.16712593  0.25000000  1
  Al  Al18  1  0.16620959  0.83379040  0.75058952  1
  Al  Al19  1  0.33379041  0.66620960  0.25058952  1
  Al  Al20  1  0.66620960  0.33379041  0.74941048  1
  Al  Al21  1  0.83379040  0.16620959  0.24941048  1
  Al  Al22  1  0.66712594  0.83287406  0.75000000  1
  Al  Al23  1  0.83287406  0.66712594  0.25000000  1
  C  C24  1  -0.00000000  0.00000000  -0.00000000  1
  C  C25  1  -0.00000000  0.50000000  -0.00000000  1
  C  C26  1  -0.00000000  0.50000000  0.50000000  1
  C  C27  1  0.50000000  0.00000000  -0.00000000  1
  C  C28  1  0.50000000  0.00000000  0.50000000  1
  C  C29  1  0.50000000  0.50000000  0.50000000  1
  N  N30  1  -0.00000000  0.00000000  0.50000000  1
  N  N31  1  0.50000000  0.50000000  -0.00000000  1
