# generated using pymatgen
data_Ti8Al4CN3
_symmetry_space_group_name_H-M   'P 1'
_cell_length_a   6.14315784
_cell_length_b   6.14447498
_cell_length_c   13.92677268
_cell_angle_alpha   89.99999998
_cell_angle_beta   90.00172647
_cell_angle_gamma   120.00709289
_symmetry_Int_Tables_number   1
_chemical_formula_structural   Ti8Al4CN3
_chemical_formula_sum   'Ti16 Al8 C2 N6'
_cell_volume   455.22544371
_cell_formula_units_Z   2
loop_
 _symmetry_equiv_pos_site_id
 _symmetry_equiv_pos_as_xyz
  1  'x, y, z'
loop_
 _atom_site_type_symbol
 _atom_site_label
 _atom_site_symmetry_multiplicity
 _atom_site_fract_x
 _atom_site_fract_y
 _atom_site_fract_z
 _atom_site_occupancy
  Ti  Ti0  1  0.16677174  0.33338588  0.08296438  1
  Ti  Ti1  1  0.33133837  0.16566917  0.58364194  1
  Ti  Ti2  1  0.33341857  0.16670929  0.91684540  1
  Ti  Ti3  1  0.16526607  0.33263304  0.41710121  1
  Ti  Ti4  1  0.16677174  0.83338587  0.08296438  1
  Ti  Ti5  1  0.33133837  0.66566918  0.58364194  1
  Ti  Ti6  1  0.33341857  0.66670930  0.91684540  1
  Ti  Ti7  1  0.16526607  0.83263303  0.41710121  1
  Ti  Ti8  1  0.66658144  0.33329071  0.08315460  1
  Ti  Ti9  1  0.83473392  0.16736696  0.58289879  1
  Ti  Ti10  1  0.83322825  0.16661412  0.91703562  1
  Ti  Ti11  1  0.66866164  0.33433083  0.41635806  1
  Ti  Ti12  1  0.66658144  0.83329070  0.08315460  1
  Ti  Ti13  1  0.83473392  0.66736697  0.58289879  1
  Ti  Ti14  1  0.83322825  0.66661413  0.91703562  1
  Ti  Ti15  1  0.66866164  0.83433082  0.41635806  1
  Al  Al16  1  0.16588831  0.33294417  0.75128759  1
  Al  Al17  1  0.33254408  0.16627203  0.24928392  1
  Al  Al18  1  0.16588831  0.83294416  0.75128759  1
  Al  Al19  1  0.33254408  0.66627204  0.24928392  1
  Al  Al20  1  0.66745593  0.33372797  0.75071608  1
  Al  Al21  1  0.83411168  0.16705583  0.24871241  1
  Al  Al22  1  0.66745593  0.83372796  0.75071608  1
  Al  Al23  1  0.83411168  0.66705584  0.24871241  1
  N  N24  1  -0.00000000  0.00000000  0.00000000  1
  N  N25  1  -0.00000000  -0.00000000  0.50000000  1
  N  N26  1  -0.00000000  0.50000000  0.00000000  1
  N  N27  1  -0.00000000  0.50000000  0.50000000  1
  N  N28  1  0.50000000  0.00000000  0.00000000  1
  N  N29  1  0.50000000  0.50000000  0.00000000  1
  C  C30  1  0.50000000  0.00000000  0.50000000  1
  C  C31  1  0.50000000  0.50000000  0.50000000  1
