# generated using pymatgen
data_Ti8Al4CN3
_symmetry_space_group_name_H-M   'P 1'
_cell_length_a   6.17954691
_cell_length_b   6.18099513
_cell_length_c   14.00736231
_cell_angle_alpha   90.00000001
_cell_angle_beta   90.00158393
_cell_angle_gamma   120.00775271
_symmetry_Int_Tables_number   1
_chemical_formula_structural   Ti8Al4CN3
_chemical_formula_sum   'Ti16 Al8 C2 N6'
_cell_volume   463.30618234
_cell_formula_units_Z   2
loop_
 _symmetry_equiv_pos_site_id
 _symmetry_equiv_pos_as_xyz
  1  'x, y, z'
loop_
 _atom_site_type_symbol
 _atom_site_label
 _atom_site_symmetry_multiplicity
 _atom_site_fract_x
 _atom_site_fract_y
 _atom_site_fract_z
 _atom_site_occupancy
  Ti  Ti0  1  0.16676224  0.33338114  0.08236031  1
  Ti  Ti1  1  0.33136505  0.16568252  0.58302662  1
  Ti  Ti2  1  0.33340657  0.16670328  0.91744988  1
  Ti  Ti3  1  0.16529591  0.33264797  0.41770427  1
  Ti  Ti4  1  0.16676224  0.83338113  0.08236031  1
  Ti  Ti5  1  0.33136505  0.66568253  0.58302662  1
  Ti  Ti6  1  0.33340657  0.66670329  0.91744988  1
  Ti  Ti7  1  0.16529591  0.83264796  0.41770427  1
  Ti  Ti8  1  0.66659344  0.33329672  0.08255012  1
  Ti  Ti9  1  0.83470408  0.16735203  0.58229573  1
  Ti  Ti10  1  0.83323775  0.16661886  0.91763969  1
  Ti  Ti11  1  0.66863496  0.33431748  0.41697338  1
  Ti  Ti12  1  0.66659344  0.83329671  0.08255012  1
  Ti  Ti13  1  0.83470408  0.66735204  0.58229573  1
  Ti  Ti14  1  0.83323775  0.66661887  0.91763969  1
  Ti  Ti15  1  0.66863496  0.83431747  0.41697338  1
  Al  Al16  1  0.16587927  0.33293964  0.75131426  1
  Al  Al17  1  0.33253311  0.16626655  0.24925926  1
  Al  Al18  1  0.16587927  0.83293963  0.75131426  1
  Al  Al19  1  0.33253311  0.66626656  0.24925926  1
  Al  Al20  1  0.66746690  0.33373345  0.75074074  1
  Al  Al21  1  0.83412072  0.16706036  0.24868574  1
  Al  Al22  1  0.66746690  0.83373344  0.75074074  1
  Al  Al23  1  0.83412072  0.66706037  0.24868574  1
  N  N24  1  -0.00000000  0.00000000  0.00000000  1
  N  N25  1  -0.00000000  0.00000000  0.50000000  1
  N  N26  1  -0.00000000  0.50000000  0.00000000  1
  N  N27  1  -0.00000000  0.50000000  0.50000000  1
  N  N28  1  0.50000000  0.00000000  0.00000000  1
  N  N29  1  0.50000000  0.50000000  0.00000000  1
  C  C30  1  0.50000000  0.00000000  0.50000000  1
  C  C31  1  0.50000000  0.50000000  0.50000000  1
