# generated using pymatgen
data_Ti8Al4C3N
_symmetry_space_group_name_H-M   'P 1'
_cell_length_a   6.25364790
_cell_length_b   6.25364789
_cell_length_c   14.07135403
_cell_angle_alpha   90.00000000
_cell_angle_beta   90.00000000
_cell_angle_gamma   120.00174701
_symmetry_Int_Tables_number   1
_chemical_formula_structural   Ti8Al4C3N
_chemical_formula_sum   'Ti16 Al8 C6 N2'
_cell_volume   476.56893158
_cell_formula_units_Z   2
loop_
 _symmetry_equiv_pos_site_id
 _symmetry_equiv_pos_as_xyz
  1  'x, y, z'
loop_
 _atom_site_type_symbol
 _atom_site_label
 _atom_site_symmetry_multiplicity
 _atom_site_fract_x
 _atom_site_fract_y
 _atom_site_fract_z
 _atom_site_occupancy
  Ti  Ti0  1  0.16834656  0.33415674  0.08096674  1
  Ti  Ti1  1  0.33165344  0.16584326  0.58096674  1
  Ti  Ti2  1  0.33415674  0.16834656  0.91903326  1
  Ti  Ti3  1  0.16584326  0.33165344  0.41903326  1
  Ti  Ti4  1  0.16667019  0.83332980  0.08191216  1
  Ti  Ti5  1  0.33332981  0.66667020  0.58191216  1
  Ti  Ti6  1  0.33415731  0.66584270  0.91885167  1
  Ti  Ti7  1  0.16584269  0.83415730  0.41885167  1
  Ti  Ti8  1  0.66584270  0.33415731  0.08114833  1
  Ti  Ti9  1  0.83415730  0.16584269  0.58114833  1
  Ti  Ti10  1  0.83332980  0.16667019  0.91808784  1
  Ti  Ti11  1  0.66667020  0.33332981  0.41808784  1
  Ti  Ti12  1  0.66584327  0.83165343  0.08096674  1
  Ti  Ti13  1  0.83415673  0.66834657  0.58096674  1
  Ti  Ti14  1  0.83165343  0.66584327  0.91903326  1
  Ti  Ti15  1  0.66834657  0.83415673  0.41903326  1
  Al  Al16  1  0.16716425  0.33283575  0.75000000  1
  Al  Al17  1  0.33283575  0.16716425  0.25000000  1
  Al  Al18  1  0.16617097  0.83382902  0.75056803  1
  Al  Al19  1  0.33382903  0.66617098  0.25056803  1
  Al  Al20  1  0.66617098  0.33382903  0.74943197  1
  Al  Al21  1  0.83382902  0.16617097  0.24943197  1
  Al  Al22  1  0.66716426  0.83283574  0.75000000  1
  Al  Al23  1  0.83283574  0.66716426  0.25000000  1
  C  C24  1  -0.00000000  0.00000000  0.00000000  1
  C  C25  1  -0.00000000  0.50000000  0.00000000  1
  C  C26  1  -0.00000000  0.50000000  0.50000000  1
  C  C27  1  0.50000000  0.00000000  0.00000000  1
  C  C28  1  0.50000000  0.00000000  0.50000000  1
  C  C29  1  0.50000000  0.50000000  0.50000000  1
  N  N30  1  -0.00000000  0.00000000  0.50000000  1
  N  N31  1  0.50000000  0.50000000  0.00000000  1
