# generated using pymatgen
data_Ti8Al4C3N
_symmetry_space_group_name_H-M   'P 1'
_cell_length_a   6.28886894
_cell_length_b   6.28886894
_cell_length_c   14.15976325
_cell_angle_alpha   90.00000000
_cell_angle_beta   90.00000000
_cell_angle_gamma   120.00205093
_symmetry_Int_Tables_number   1
_chemical_formula_structural   Ti8Al4C3N
_chemical_formula_sum   'Ti16 Al8 C6 N2'
_cell_volume   484.97877926
_cell_formula_units_Z   2
loop_
 _symmetry_equiv_pos_site_id
 _symmetry_equiv_pos_as_xyz
  1  'x, y, z'
loop_
 _atom_site_type_symbol
 _atom_site_label
 _atom_site_symmetry_multiplicity
 _atom_site_fract_x
 _atom_site_fract_y
 _atom_site_fract_z
 _atom_site_occupancy
  Ti  Ti0  1  0.16830353  0.33413121  0.08035344  1
  Ti  Ti1  1  0.33169647  0.16586879  0.58035344  1
  Ti  Ti2  1  0.33413121  0.16830353  0.91964656  1
  Ti  Ti3  1  0.16586879  0.33169647  0.41964656  1
  Ti  Ti4  1  0.16666750  0.83333249  0.08128356  1
  Ti  Ti5  1  0.33333250  0.66666751  0.58128356  1
  Ti  Ti6  1  0.33413616  0.66586385  0.91947657  1
  Ti  Ti7  1  0.16586384  0.83413615  0.41947657  1
  Ti  Ti8  1  0.66586385  0.33413616  0.08052343  1
  Ti  Ti9  1  0.83413615  0.16586384  0.58052343  1
  Ti  Ti10  1  0.83333249  0.16666750  0.91871644  1
  Ti  Ti11  1  0.66666751  0.33333250  0.41871644  1
  Ti  Ti12  1  0.66586880  0.83169646  0.08035344  1
  Ti  Ti13  1  0.83413120  0.66830354  0.58035344  1
  Ti  Ti14  1  0.83169646  0.66586880  0.91964656  1
  Ti  Ti15  1  0.66830354  0.83413120  0.41964656  1
  Al  Al16  1  0.16716628  0.33283372  0.75000000  1
  Al  Al17  1  0.33283372  0.16716628  0.25000000  1
  Al  Al18  1  0.16616887  0.83383112  0.75056404  1
  Al  Al19  1  0.33383113  0.66616888  0.25056404  1
  Al  Al20  1  0.66616888  0.33383113  0.74943596  1
  Al  Al21  1  0.83383112  0.16616887  0.24943596  1
  Al  Al22  1  0.66716629  0.83283371  0.75000000  1
  Al  Al23  1  0.83283371  0.66716629  0.25000000  1
  C  C24  1  -0.00000000  -0.00000000  -0.00000000  1
  C  C25  1  -0.00000000  0.50000000  -0.00000000  1
  C  C26  1  -0.00000000  0.50000000  0.50000000  1
  C  C27  1  0.50000000  -0.00000000  -0.00000000  1
  C  C28  1  0.50000000  -0.00000000  0.50000000  1
  C  C29  1  0.50000000  0.50000000  0.50000000  1
  N  N30  1  -0.00000000  -0.00000000  0.50000000  1
  N  N31  1  0.50000000  0.50000000  -0.00000000  1
