# generated using pymatgen
data_Ti8Al4C3N
_symmetry_space_group_name_H-M   'P 1'
_cell_length_a   6.21815109
_cell_length_b   6.21815108
_cell_length_c   13.98422777
_cell_angle_alpha   90.00000000
_cell_angle_beta   90.00000000
_cell_angle_gamma   120.00171410
_symmetry_Int_Tables_number   1
_chemical_formula_structural   Ti8Al4C3N
_chemical_formula_sum   'Ti16 Al8 C6 N2'
_cell_volume   468.25687117
_cell_formula_units_Z   2
loop_
 _symmetry_equiv_pos_site_id
 _symmetry_equiv_pos_as_xyz
  1  'x, y, z'
loop_
 _atom_site_type_symbol
 _atom_site_label
 _atom_site_symmetry_multiplicity
 _atom_site_fract_x
 _atom_site_fract_y
 _atom_site_fract_z
 _atom_site_occupancy
  Ti  Ti0  1  0.16838791  0.33418086  0.08156824  1
  Ti  Ti1  1  0.33161209  0.16581914  0.58156824  1
  Ti  Ti2  1  0.33418086  0.16838791  0.91843176  1
  Ti  Ti3  1  0.16581914  0.33161209  0.41843176  1
  Ti  Ti4  1  0.16667266  0.83332733  0.08252487  1
  Ti  Ti5  1  0.33332734  0.66667267  0.58252487  1
  Ti  Ti6  1  0.33417620  0.66582381  0.91824356  1
  Ti  Ti7  1  0.16582380  0.83417619  0.41824356  1
  Ti  Ti8  1  0.66582381  0.33417620  0.08175644  1
  Ti  Ti9  1  0.83417619  0.16582380  0.58175644  1
  Ti  Ti10  1  0.83332733  0.16667266  0.91747513  1
  Ti  Ti11  1  0.66667267  0.33332734  0.41747513  1
  Ti  Ti12  1  0.66581915  0.83161208  0.08156824  1
  Ti  Ti13  1  0.83418085  0.66838792  0.58156824  1
  Ti  Ti14  1  0.83161208  0.66581915  0.91843176  1
  Ti  Ti15  1  0.66838792  0.83418085  0.41843176  1
  Al  Al16  1  0.16715711  0.33284289  0.75000000  1
  Al  Al17  1  0.33284289  0.16715711  0.25000000  1
  Al  Al18  1  0.16617815  0.83382184  0.75057320  1
  Al  Al19  1  0.33382185  0.66617816  0.25057320  1
  Al  Al20  1  0.66617816  0.33382185  0.74942680  1
  Al  Al21  1  0.83382184  0.16617815  0.24942680  1
  Al  Al22  1  0.66715712  0.83284288  0.75000000  1
  Al  Al23  1  0.83284288  0.66715712  0.25000000  1
  C  C24  1  0.00000000  0.00000000  0.00000000  1
  C  C25  1  0.00000000  0.50000000  0.00000000  1
  C  C26  1  0.00000000  0.50000000  0.50000000  1
  C  C27  1  0.50000000  0.00000000  0.00000000  1
  C  C28  1  0.50000000  0.00000000  0.50000000  1
  C  C29  1  0.50000000  0.50000000  0.50000000  1
  N  N30  1  0.00000000  0.00000000  0.50000000  1
  N  N31  1  0.50000000  0.50000000  0.00000000  1
