# generated using pymatgen
data_HfTaTiNbFeC5
_symmetry_space_group_name_H-M   'P 1'
_cell_length_a   7.00367172
_cell_length_b   6.99437178
_cell_length_c   4.42424220
_cell_angle_alpha   90.00000000
_cell_angle_beta   90.00000000
_cell_angle_gamma   89.71780937
_symmetry_Int_Tables_number   1
_chemical_formula_structural   HfTaTiNbFeC5
_chemical_formula_sum   'Hf2 Ta2 Ti2 Nb2 Fe2 C10'
_cell_volume   216.72455563
_cell_formula_units_Z   2
loop_
 _symmetry_equiv_pos_site_id
 _symmetry_equiv_pos_as_xyz
  1  'x, y, z'
loop_
 _atom_site_type_symbol
 _atom_site_label
 _atom_site_symmetry_multiplicity
 _atom_site_fract_x
 _atom_site_fract_y
 _atom_site_fract_z
 _atom_site_occupancy
  C  C0  1  0.29580418  0.90584387  0.00000000  1
  C  C1  1  0.50235578  0.48972939  0.00000000  1
  C  C2  1  0.40409540  0.19126698  0.50000000  1
  C  C3  1  0.09045648  0.29984575  0.00000000  1
  C  C4  1  0.99531228  0.00034275  0.50000000  1
  C  C5  1  0.69922127  0.11542991  0.00000000  1
  C  C6  1  0.60079328  0.80361162  0.50000000  1
  C  C7  1  0.19927148  0.60323667  0.50000000  1
  C  C8  1  0.90452151  0.69924332  0.00000000  1
  C  C9  1  0.80543279  0.39258080  0.50000000  1
  Hf  Hf10  1  0.50498692  0.49151272  0.50000000  1
  Hf  Hf11  1  0.60306712  0.81478693  0.00000000  1
  Nb  Nb12  1  0.20327782  0.59743052  0.00000000  1
  Nb  Nb13  1  0.10077968  0.29488196  0.50000000  1
  Ta  Ta14  1  0.89553719  0.68825675  0.50000000  1
  Ta  Ta15  1  0.99777259  0.01242972  0.00000000  1
  Ti  Ti16  1  0.30175998  0.89955164  0.50000000  1
  Ti  Ti17  1  0.40888204  0.19595814  0.00000000  1
  Fe  Fe18  1  0.72147575  0.12644356  0.50000000  1
  Fe  Fe19  1  0.76519646  0.37761700  0.00000000  1
