# generated using pymatgen
data_HfTaTiNbCuC5
_symmetry_space_group_name_H-M   'P 1'
_cell_length_a   7.05323324
_cell_length_b   7.21501563
_cell_length_c   4.41744914
_cell_angle_alpha   90.00000000
_cell_angle_beta   90.00000000
_cell_angle_gamma   87.68882446
_symmetry_Int_Tables_number   1
_chemical_formula_structural   HfTaTiNbCuC5
_chemical_formula_sum   'Hf2 Ta2 Ti2 Nb2 Cu2 C10'
_cell_volume   224.61753570
_cell_formula_units_Z   2
loop_
 _symmetry_equiv_pos_site_id
 _symmetry_equiv_pos_as_xyz
  1  'x, y, z'
loop_
 _atom_site_type_symbol
 _atom_site_label
 _atom_site_symmetry_multiplicity
 _atom_site_fract_x
 _atom_site_fract_y
 _atom_site_fract_z
 _atom_site_occupancy
  C  C0  1  0.29949297  0.90518341  0.00000000  1
  C  C1  1  0.49484292  0.48051778  0.00000000  1
  C  C2  1  0.40157066  0.19111181  0.50000000  1
  C  C3  1  0.09205468  0.30906324  0.00000000  1
  C  C4  1  0.99729032  0.01362101  0.50000000  1
  C  C5  1  0.69294016  0.09311407  0.00000000  1
  C  C6  1  0.59642256  0.78598451  0.50000000  1
  C  C7  1  0.20325278  0.60868428  0.50000000  1
  C  C8  1  0.91394495  0.72232506  0.00000000  1
  C  C9  1  0.82194556  0.42568976  0.50000000  1
  Hf  Hf10  1  0.51416281  0.48196108  0.50000000  1
  Hf  Hf11  1  0.60369676  0.79476069  0.00000000  1
  Nb  Nb12  1  0.20072901  0.60748763  0.00000000  1
  Nb  Nb13  1  0.08832699  0.31294659  0.50000000  1
  Ta  Ta14  1  0.90336145  0.72104360  0.50000000  1
  Ta  Ta15  1  0.99555965  0.02062699  0.00000000  1
  Ti  Ti16  1  0.30963719  0.89747795  0.50000000  1
  Ti  Ti17  1  0.41276497  0.18720270  0.00000000  1
  Cu  Cu18  1  0.67676993  0.07077952  0.50000000  1
  Cu  Cu19  1  0.78123369  0.37041834  0.00000000  1
