# generated using pymatgen
data_HfTaTiNbCoC5
_symmetry_space_group_name_H-M   'P 1'
_cell_length_a   7.00437514
_cell_length_b   6.94456908
_cell_length_c   4.44804378
_cell_angle_alpha   90.00000000
_cell_angle_beta   90.00000000
_cell_angle_gamma   90.08037643
_symmetry_Int_Tables_number   1
_chemical_formula_structural   HfTaTiNbCoC5
_chemical_formula_sum   'Hf2 Ta2 Ti2 Nb2 Co2 C10'
_cell_volume   216.36316528
_cell_formula_units_Z   2
loop_
 _symmetry_equiv_pos_site_id
 _symmetry_equiv_pos_as_xyz
  1  'x, y, z'
loop_
 _atom_site_type_symbol
 _atom_site_label
 _atom_site_symmetry_multiplicity
 _atom_site_fract_x
 _atom_site_fract_y
 _atom_site_fract_z
 _atom_site_occupancy
  C  C0  1  0.29666191  0.90602034  0.00000000  1
  C  C1  1  0.49978734  0.49163846  0.00000000  1
  C  C2  1  0.40386797  0.19014805  0.50000000  1
  C  C3  1  0.09034338  0.30022139  0.00000000  1
  C  C4  1  0.99606036  0.99755984  0.50000000  1
  C  C5  1  0.70223399  0.12179772  0.00000000  1
  C  C6  1  0.60096277  0.80556293  0.50000000  1
  C  C7  1  0.19811819  0.60131989  0.50000000  1
  C  C8  1  0.90300432  0.69727068  0.00000000  1
  C  C9  1  0.80507439  0.38791283  0.50000000  1
  Hf  Hf10  1  0.50731839  0.48845715  0.50000000  1
  Hf  Hf11  1  0.60226132  0.81294161  0.00000000  1
  Nb  Nb12  1  0.20230318  0.59673767  0.00000000  1
  Nb  Nb13  1  0.09308374  0.29532193  0.50000000  1
  Ta  Ta14  1  0.89507174  0.69194480  0.50000000  1
  Ta  Ta15  1  0.99424803  0.01223229  0.00000000  1
  Ti  Ti16  1  0.30246065  0.90133852  0.50000000  1
  Ti  Ti17  1  0.41302862  0.19676439  0.00000000  1
  Co  Co18  1  0.71507877  0.09621851  0.50000000  1
  Co  Co19  1  0.77903093  0.40859101  0.00000000  1
