# generated using pymatgen
data_Al4V8CO3
_symmetry_space_group_name_H-M   'P 1'
_cell_length_a   5.56232439
_cell_length_b   5.56169141
_cell_length_c   13.67370374
_cell_angle_alpha   90.00012928
_cell_angle_beta   89.99972579
_cell_angle_gamma   119.98539538
_symmetry_Int_Tables_number   1
_chemical_formula_structural   Al4V8CO3
_chemical_formula_sum   'Al8 V16 C2 O6'
_cell_volume   366.39023800
_cell_formula_units_Z   2
loop_
 _symmetry_equiv_pos_site_id
 _symmetry_equiv_pos_as_xyz
  1  'x, y, z'
loop_
 _atom_site_type_symbol
 _atom_site_label
 _atom_site_symmetry_multiplicity
 _atom_site_fract_x
 _atom_site_fract_y
 _atom_site_fract_z
 _atom_site_occupancy
  Al  Al0  1  0.16655032  0.33474530  0.24999814  1
  Al  Al1  1  0.33365198  0.16734130  0.75096086  1
  Al  Al2  1  0.16573930  0.83321848  0.25095970  1
  Al  Al3  1  0.33289524  0.66581470  0.75000367  1
  Al  Al4  1  0.66655835  0.33475459  0.25000348  1
  Al  Al5  1  0.83367161  0.16734269  0.74904461  1
  Al  Al6  1  0.66575366  0.83322071  0.24903990  1
  Al  Al7  1  0.83290428  0.66582796  0.75000370  1
  V  V8  1  0.16402414  0.33602245  0.90752498  1
  V  V9  1  0.33584761  0.17255085  0.40779075  1
  V  V10  1  0.33297614  0.16683931  0.09691463  1
  V  V11  1  0.17168378  0.33600211  0.59246330  1
  V  V12  1  0.16377363  0.82782018  0.90779340  1
  V  V13  1  0.33560349  0.66434294  0.40753590  1
  V  V14  1  0.32793882  0.66437474  0.09246387  1
  V  V15  1  0.16664054  0.83354488  0.59691593  1
  V  V16  1  0.67168634  0.33600569  0.90753789  1
  V  V17  1  0.83298089  0.16683893  0.40308470  1
  V  V18  1  0.83585135  0.17255157  0.09220927  1
  V  V19  1  0.66402597  0.33602262  0.59246952  1
  V  V20  1  0.66664606  0.83354466  0.90308183  1
  V  V21  1  0.82793956  0.66437681  0.40753405  1
  V  V22  1  0.83560506  0.66434502  0.09246783  1
  V  V23  1  0.66377866  0.82782362  0.59220313  1
  O  O24  1  0.99983185  0.00018468  0.99999565  1
  O  O25  1  0.99983203  0.00016855  0.50000263  1
  O  O26  1  0.99981484  0.50016864  0.50000370  1
  O  O27  1  0.49983309  0.00016942  0.99999682  1
  O  O28  1  0.49983220  0.00018434  0.50000354  1
  O  O29  1  0.49981489  0.50016824  0.99999568  1
  C  C30  1  0.99982675  0.50017798  0.00000087  1
  C  C31  1  0.49982092  0.50017271  0.49999608  1
