# generated using pymatgen
data_Al4V8C3O
_symmetry_space_group_name_H-M   'P 1'
_cell_length_a   5.70818437
_cell_length_b   5.70816972
_cell_length_c   12.99528183
_cell_angle_alpha   90.00000000
_cell_angle_beta   90.00000000
_cell_angle_gamma   119.98674664
_symmetry_Int_Tables_number   1
_chemical_formula_structural   Al4V8C3O
_chemical_formula_sum   'Al8 V16 C6 O2'
_cell_volume   366.74921118
_cell_formula_units_Z   2
loop_
 _symmetry_equiv_pos_site_id
 _symmetry_equiv_pos_as_xyz
  1  'x, y, z'
loop_
 _atom_site_type_symbol
 _atom_site_label
 _atom_site_symmetry_multiplicity
 _atom_site_fract_x
 _atom_site_fract_y
 _atom_site_fract_z
 _atom_site_occupancy
  Al  Al0  1  0.16617004  0.33388998  0.25003832  1
  Al  Al1  1  0.33341306  0.16674198  0.75000150  1
  Al  Al2  1  0.16617004  0.83388998  0.24996168  1
  Al  Al3  1  0.33341306  0.66674199  0.74999850  1
  Al  Al4  1  0.66601104  0.33382977  0.25000113  1
  Al  Al5  1  0.83326618  0.16666637  0.75004029  1
  Al  Al6  1  0.66601104  0.83382977  0.24999887  1
  Al  Al7  1  0.83326618  0.66666638  0.74995971  1
  V  V8  1  0.16644236  0.33343069  0.91332573  1
  V  V9  1  0.33124358  0.16333557  0.41191217  1
  V  V10  1  0.33122875  0.16862229  0.08810525  1
  V  V11  1  0.16296883  0.33168438  0.58828229  1
  V  V12  1  0.16296883  0.83168437  0.91171771  1
  V  V13  1  0.33122875  0.66862230  0.41189475  1
  V  V14  1  0.33124358  0.66333558  0.08808783  1
  V  V15  1  0.16644236  0.83343068  0.58667427  1
  V  V16  1  0.66839020  0.33704019  0.91191799  1
  V  V17  1  0.83319410  0.16694122  0.41330570  1
  V  V18  1  0.83666145  0.16868486  0.08829246  1
  V  V19  1  0.66839694  0.33173996  0.58809117  1
  V  V20  1  0.66839694  0.83173995  0.91190883  1
  V  V21  1  0.83666145  0.66868487  0.41170754  1
  V  V22  1  0.83319410  0.66694123  0.08669430  1
  V  V23  1  0.66839020  0.83704018  0.58808201  1
  C  C24  1  0.99982152  0.00018324  0.00001032  1
  C  C25  1  0.99982599  0.00018103  0.49999216  1
  C  C26  1  0.99982599  0.50018103  0.00000784  1
  C  C27  1  0.99982152  0.50018324  0.49998968  1
  C  C28  1  0.49981478  0.00017843  0.49998776  1
  C  C29  1  0.49981478  0.50017843  0.00001224  1
  O  O30  1  0.49981783  0.00018336  0.00000603  1
  O  O31  1  0.49981783  0.50018336  0.49999397  1
