# generated using pymatgen
data_Al4V8CO3
_symmetry_space_group_name_H-M   'P 1'
_cell_length_a   5.64677988
_cell_length_b   5.64612646
_cell_length_c   13.83690096
_cell_angle_alpha   90.00021662
_cell_angle_beta   89.99989101
_cell_angle_gamma   119.98545461
_symmetry_Int_Tables_number   1
_chemical_formula_structural   Al4V8CO3
_chemical_formula_sum   'Al8 V16 C2 O6'
_cell_volume   382.10661794
_cell_formula_units_Z   2
loop_
 _symmetry_equiv_pos_site_id
 _symmetry_equiv_pos_as_xyz
  1  'x, y, z'
loop_
 _atom_site_type_symbol
 _atom_site_label
 _atom_site_symmetry_multiplicity
 _atom_site_fract_x
 _atom_site_fract_y
 _atom_site_fract_z
 _atom_site_occupancy
  Al  Al0  1  0.16649858  0.33479506  0.24999607  1
  Al  Al1  1  0.33368274  0.16735891  0.75092259  1
  Al  Al2  1  0.16566342  0.83323707  0.25092451  1
  Al  Al3  1  0.33291323  0.66582016  0.75000050  1
  Al  Al4  1  0.66650875  0.33480638  0.25000312  1
  Al  Al5  1  0.83368573  0.16735850  0.74907693  1
  Al  Al6  1  0.66568045  0.83324001  0.24907457  1
  Al  Al7  1  0.83291401  0.66582244  0.74999956  1
  V  V8  1  0.16351223  0.33662219  0.90859579  1
  V  V9  1  0.33646625  0.17381188  0.40890167  1
  V  V10  1  0.33298169  0.16687857  0.09632988  1
  V  V11  1  0.17285421  0.33660235  0.59139615  1
  V  V12  1  0.16316657  0.82654417  0.90890015  1
  V  V13  1  0.33612938  0.66372648  0.40861167  1
  V  V14  1  0.32678897  0.66376825  0.09139351  1
  V  V15  1  0.16664385  0.83349822  0.59633640  1
  V  V16  1  0.67285335  0.33660294  0.90860514  1
  V  V17  1  0.83298578  0.16687848  0.40366984  1
  V  V18  1  0.83646726  0.17380937  0.09109955  1
  V  V19  1  0.66351298  0.33662319  0.59140343  1
  V  V20  1  0.66664772  0.83349876  0.90366283  1
  V  V21  1  0.82678660  0.66376816  0.40860255  1
  V  V22  1  0.83613179  0.66372692  0.09139181  1
  V  V23  1  0.66316808  0.82654382  0.59109934  1
  O  O24  1  0.99984280  0.00018239  0.99999675  1
  O  O25  1  0.99984852  0.00016268  0.50000162  1
  O  O26  1  0.99982588  0.50015659  0.50000402  1
  O  O27  1  0.49984723  0.00015790  0.99999966  1
  O  O28  1  0.49984047  0.00017639  0.50000311  1
  O  O29  1  0.49981757  0.50015579  0.99999649  1
  C  C30  1  0.99983305  0.50016667  0.99999752  1
  C  C31  1  0.49983420  0.50016598  0.50000327  1
