# generated using pymatgen
data_Al4V8CO3
_symmetry_space_group_name_H-M   'P 1'
_cell_length_a   5.77645798
_cell_length_b   5.76784990
_cell_length_c   14.01195754
_cell_angle_alpha   90.00006543
_cell_angle_beta   89.99989524
_cell_angle_gamma   120.03808145
_symmetry_Int_Tables_number   1
_chemical_formula_structural   Al4V8CO3
_chemical_formula_sum   'Al8 V16 C2 O6'
_cell_volume   404.14594989
_cell_formula_units_Z   2
loop_
 _symmetry_equiv_pos_site_id
 _symmetry_equiv_pos_as_xyz
  1  'x, y, z'
loop_
 _atom_site_type_symbol
 _atom_site_label
 _atom_site_symmetry_multiplicity
 _atom_site_fract_x
 _atom_site_fract_y
 _atom_site_fract_z
 _atom_site_occupancy
  Al  Al0  1  0.16665243  0.33473118  0.24999799  1
  Al  Al1  1  0.33347054  0.16703491  0.75079572  1
  Al  Al2  1  0.16598652  0.83348038  0.25079765  1
  Al  Al3  1  0.33284211  0.66578742  0.75000119  1
  Al  Al4  1  0.66665478  0.33473214  0.25000593  1
  Al  Al5  1  0.83347090  0.16703801  0.74920820  1
  Al  Al6  1  0.66598797  0.83348196  0.24920572  1
  Al  Al7  1  0.83284715  0.66578712  0.75000432  1
  V  V8  1  0.16276060  0.33793909  0.91028307  1
  V  V9  1  0.33756755  0.17596548  0.41077109  1
  V  V10  1  0.33276200  0.16638590  0.09560466  1
  V  V11  1  0.17478133  0.33791390  0.58971593  1
  V  V12  1  0.16204065  0.82441426  0.91076869  1
  V  V13  1  0.33685778  0.66244400  0.41029016  1
  V  V14  1  0.32482614  0.66248199  0.08971337  1
  V  V15  1  0.16684572  0.83401938  0.59560907  1
  V  V16  1  0.67478340  0.33791010  0.91028365  1
  V  V17  1  0.83276470  0.16639207  0.40439228  1
  V  V18  1  0.83757120  0.17597256  0.08922819  1
  V  V19  1  0.66276209  0.33794455  0.58971537  1
  V  V20  1  0.66684278  0.83401546  0.90439306  1
  V  V21  1  0.82482996  0.66248653  0.41028663  1
  V  V22  1  0.83685583  0.66244039  0.08970979  1
  V  V23  1  0.66203872  0.82441151  0.58922895  1
  O  O24  1  0.99982782  0.00019595  0.99999731  1
  O  O25  1  0.99982545  0.00017301  0.50000148  1
  O  O26  1  0.99980032  0.50016649  0.50000139  1
  O  O27  1  0.49982359  0.00017484  0.99999753  1
  O  O28  1  0.49981935  0.00019183  0.50000130  1
  O  O29  1  0.49980835  0.50018232  0.99999719  1
  C  C30  1  0.99981576  0.50019043  0.99999207  1
  C  C31  1  0.49980988  0.50018148  0.50000106  1
