# generated using pymatgen
data_Al4V8CO3
_symmetry_space_group_name_H-M   'P 1'
_cell_length_a   5.60575980
_cell_length_b   5.60522690
_cell_length_c   13.74884555
_cell_angle_alpha   90.00019042
_cell_angle_beta   89.99966895
_cell_angle_gamma   119.98363328
_symmetry_Int_Tables_number   1
_chemical_formula_structural   Al4V8CO3
_chemical_formula_sum   'Al8 V16 C2 O6'
_cell_volume   374.19342201
_cell_formula_units_Z   2
loop_
 _symmetry_equiv_pos_site_id
 _symmetry_equiv_pos_as_xyz
  1  'x, y, z'
loop_
 _atom_site_type_symbol
 _atom_site_label
 _atom_site_symmetry_multiplicity
 _atom_site_fract_x
 _atom_site_fract_y
 _atom_site_fract_z
 _atom_site_occupancy
  Al  Al0  1  0.16648823  0.33481579  0.24999222  1
  Al  Al1  1  0.33368405  0.16738441  0.75094996  1
  Al  Al2  1  0.16565624  0.83322024  0.25095397  1
  Al  Al3  1  0.33289774  0.66579148  0.74999506  1
  Al  Al4  1  0.66651377  0.33481239  0.25000344  1
  Al  Al5  1  0.83371428  0.16738768  0.74904215  1
  Al  Al6  1  0.66566012  0.83323777  0.24903938  1
  Al  Al7  1  0.83291298  0.66581165  0.74999633  1
  V  V8  1  0.16381744  0.33632186  0.90809043  1
  V  V9  1  0.33615946  0.17319948  0.40837888  1
  V  V10  1  0.33299008  0.16688726  0.09664105  1
  V  V11  1  0.17225214  0.33630261  0.59190805  1
  V  V12  1  0.16347308  0.82715282  0.90837869  1
  V  V13  1  0.33582418  0.66402694  0.40810906  1
  V  V14  1  0.32738571  0.66406552  0.09190662  1
  V  V15  1  0.16663679  0.83348607  0.59665051  1
  V  V16  1  0.67225425  0.33630345  0.90809902  1
  V  V17  1  0.83299295  0.16688937  0.40335565  1
  V  V18  1  0.83616636  0.17320774  0.09162736  1
  V  V19  1  0.66381982  0.33632386  0.59190761  1
  V  V20  1  0.66664330  0.83348815  0.90335463  1
  V  V21  1  0.82739321  0.66406960  0.40809663  1
  V  V22  1  0.83583024  0.66402570  0.09189634  1
  V  V23  1  0.66347544  0.82715347  0.59162247  1
  O  O24  1  0.99984156  0.00017168  0.99999510  1
  O  O25  1  0.99984606  0.00015467  0.50000062  1
  O  O26  1  0.99982189  0.50016073  0.50000335  1
  O  O27  1  0.49984422  0.00015889  0.99999721  1
  O  O28  1  0.49984119  0.00017720  0.50000287  1
  O  O29  1  0.49982806  0.50015898  0.99999509  1
  C  C30  1  0.99984285  0.50015934  0.00000335  1
  C  C31  1  0.49982569  0.50015985  0.50000690  1
