# generated using pymatgen
data_Al4V8C3O
_symmetry_space_group_name_H-M   'P 1'
_cell_length_a   5.75139004
_cell_length_b   5.75138090
_cell_length_c   13.07549736
_cell_angle_alpha   90.00000000
_cell_angle_beta   90.00000000
_cell_angle_gamma   119.98802618
_symmetry_Int_Tables_number   1
_chemical_formula_structural   Al4V8C3O
_chemical_formula_sum   'Al8 V16 C6 O2'
_cell_volume   374.61588483
_cell_formula_units_Z   2
loop_
 _symmetry_equiv_pos_site_id
 _symmetry_equiv_pos_as_xyz
  1  'x, y, z'
loop_
 _atom_site_type_symbol
 _atom_site_label
 _atom_site_symmetry_multiplicity
 _atom_site_fract_x
 _atom_site_fract_y
 _atom_site_fract_z
 _atom_site_occupancy
  Al  Al0  1  0.16616642  0.33389196  0.25000777  1
  Al  Al1  1  0.33340323  0.16673666  0.75000251  1
  Al  Al2  1  0.16616642  0.83389196  0.24999223  1
  Al  Al3  1  0.33340323  0.66673667  0.74999749  1
  Al  Al4  1  0.66601026  0.33383432  0.25000126  1
  Al  Al5  1  0.83327599  0.16667087  0.75001422  1
  Al  Al6  1  0.66601026  0.83383432  0.24999874  1
  Al  Al7  1  0.83327599  0.66667088  0.74998578  1
  V  V8  1  0.16642755  0.33342422  0.91408084  1
  V  V9  1  0.33108683  0.16303748  0.41262010  1
  V  V10  1  0.33107212  0.16876051  0.08739715  1
  V  V11  1  0.16268008  0.33154134  0.58756139  1
  V  V12  1  0.16268008  0.83154133  0.91243861  1
  V  V13  1  0.33107212  0.66876052  0.41260285  1
  V  V14  1  0.33108683  0.66303749  0.08737990  1
  V  V15  1  0.16642755  0.83342421  0.58591916  1
  V  V16  1  0.66854588  0.33733336  0.91261990  1
  V  V17  1  0.83321044  0.16694575  0.41406626  1
  V  V18  1  0.83695412  0.16882950  0.08756717  1
  V  V19  1  0.66855365  0.33160394  0.58738927  1
  V  V20  1  0.66855365  0.83160393  0.91261073  1
  V  V21  1  0.83695412  0.66882951  0.41243283  1
  V  V22  1  0.83321044  0.66694576  0.08593374  1
  V  V23  1  0.66854588  0.83733335  0.58738010  1
  C  C24  1  0.99982803  0.00019556  0.00000430  1
  C  C25  1  0.99983008  0.00017419  0.49999863  1
  C  C26  1  0.99983008  0.50017419  0.00000137  1
  C  C27  1  0.99982803  0.50019556  0.49999570  1
  C  C28  1  0.49980420  0.00017139  0.49999438  1
  C  C29  1  0.49980420  0.50017139  0.00000562  1
  O  O30  1  0.49981779  0.00018227  0.00000496  1
  O  O31  1  0.49981779  0.50018227  0.49999504  1
