# generated using pymatgen
data_Al4V8C3O
_symmetry_space_group_name_H-M   'P 1'
_cell_length_a   5.79338572
_cell_length_b   5.79336901
_cell_length_c   13.16087167
_cell_angle_alpha   90.00000000
_cell_angle_beta   90.00000000
_cell_angle_gamma   119.98639528
_symmetry_Int_Tables_number   1
_chemical_formula_structural   Al4V8C3O
_chemical_formula_sum   'Al8 V16 C6 O2'
_cell_volume   382.59425402
_cell_formula_units_Z   2
loop_
 _symmetry_equiv_pos_site_id
 _symmetry_equiv_pos_as_xyz
  1  'x, y, z'
loop_
 _atom_site_type_symbol
 _atom_site_label
 _atom_site_symmetry_multiplicity
 _atom_site_fract_x
 _atom_site_fract_y
 _atom_site_fract_z
 _atom_site_occupancy
  Al  Al0  1  0.16606071  0.33399847  0.25001996  1
  Al  Al1  1  0.33339262  0.16668831  0.75000001  1
  Al  Al2  1  0.16606071  0.83399847  0.24998004  1
  Al  Al3  1  0.33339262  0.66668832  0.74999999  1
  Al  Al4  1  0.66590023  0.33394982  0.25000122  1
  Al  Al5  1  0.83333217  0.16665912  0.75002184  1
  Al  Al6  1  0.66590023  0.83394982  0.24999878  1
  Al  Al7  1  0.83333217  0.66665913  0.74997816  1
  V  V8  1  0.16649123  0.33340765  0.91488355  1
  V  V9  1  0.33095279  0.16276059  0.41331403  1
  V  V10  1  0.33092596  0.16893235  0.08671594  1
  V  V11  1  0.16246921  0.33138251  0.58687827  1
  V  V12  1  0.16246921  0.83138250  0.91312173  1
  V  V13  1  0.33092596  0.66893236  0.41328406  1
  V  V14  1  0.33095279  0.66276060  0.08668597  1
  V  V15  1  0.16649123  0.83340764  0.58511645  1
  V  V16  1  0.66868318  0.33754981  0.91332775  1
  V  V17  1  0.83318147  0.16694162  0.41485818  1
  V  V18  1  0.83721314  0.16896861  0.08689132  1
  V  V19  1  0.66869892  0.33140733  0.58668851  1
  V  V20  1  0.66869892  0.83140732  0.91331149  1
  V  V21  1  0.83721314  0.66896862  0.41310868  1
  V  V22  1  0.83318147  0.66694163  0.08514182  1
  V  V23  1  0.66868318  0.83754980  0.58667225  1
  C  C24  1  0.99984972  0.00017485  0.00001593  1
  C  C25  1  0.99986839  0.00016908  0.49998546  1
  C  C26  1  0.99986839  0.50016908  0.00001454  1
  C  C27  1  0.99984972  0.50017485  0.49998407  1
  C  C28  1  0.49980515  0.00015589  0.49997209  1
  C  C29  1  0.49980515  0.50015589  0.00002791  1
  O  O30  1  0.49984177  0.00018730  0.99998900  1
  O  O31  1  0.49984177  0.50018730  0.50001100  1
