# generated using pymatgen
data_Al4V8CO3
_symmetry_space_group_name_H-M   'P 1'
_cell_length_a   5.51941741
_cell_length_b   5.51884112
_cell_length_c   13.59519453
_cell_angle_alpha   90.00014098
_cell_angle_beta   89.99981221
_cell_angle_gamma   119.98406705
_symmetry_Int_Tables_number   1
_chemical_formula_structural   Al4V8CO3
_chemical_formula_sum   'Al8 V16 C2 O6'
_cell_volume   358.69629632
_cell_formula_units_Z   2
loop_
 _symmetry_equiv_pos_site_id
 _symmetry_equiv_pos_as_xyz
  1  'x, y, z'
loop_
 _atom_site_type_symbol
 _atom_site_label
 _atom_site_symmetry_multiplicity
 _atom_site_fract_x
 _atom_site_fract_y
 _atom_site_fract_z
 _atom_site_occupancy
  Al  Al0  1  0.16654074  0.33473965  0.24998780  1
  Al  Al1  1  0.33364576  0.16733129  0.75096443  1
  Al  Al2  1  0.16574564  0.83322257  0.25095640  1
  Al  Al3  1  0.33290888  0.66582512  0.75000029  1
  Al  Al4  1  0.66655612  0.33474341  0.24999616  1
  Al  Al5  1  0.83366553  0.16732401  0.74903996  1
  Al  Al6  1  0.66575490  0.83323106  0.24902799  1
  Al  Al7  1  0.83290497  0.66584146  0.75000022  1
  V  V8  1  0.16424138  0.33575114  0.90699202  1
  V  V9  1  0.33557647  0.17200728  0.40723858  1
  V  V10  1  0.33296398  0.16681199  0.09719377  1
  V  V11  1  0.17119847  0.33573398  0.59299805  1
  V  V12  1  0.16404219  0.82835906  0.90723792  1
  V  V13  1  0.33538392  0.66461698  0.40700887  1
  V  V14  1  0.32843157  0.66464629  0.09299662  1
  V  V15  1  0.16665329  0.83357440  0.59720005  1
  V  V16  1  0.67119988  0.33573637  0.90700632  1
  V  V17  1  0.83296662  0.16681028  0.40280817  1
  V  V18  1  0.83557836  0.17200686  0.09276441  1
  V  V19  1  0.66424331  0.33575180  0.59300319  1
  V  V20  1  0.66665796  0.83357234  0.90280360  1
  V  V21  1  0.82843220  0.66464996  0.40700514  1
  V  V22  1  0.83538328  0.66461631  0.09299648  1
  V  V23  1  0.66404694  0.82836319  0.59276582  1
  O  O24  1  0.99983085  0.00018154  0.99999612  1
  O  O25  1  0.99983398  0.00017220  0.50000268  1
  O  O26  1  0.99981439  0.50016729  0.50000348  1
  O  O27  1  0.49983008  0.00016980  0.99999759  1
  O  O28  1  0.49983017  0.00018555  0.50000337  1
  O  O29  1  0.49981665  0.50016933  0.99999594  1
  C  C30  1  0.99982861  0.50017131  0.99999995  1
  C  C31  1  0.49982626  0.50018282  0.50000861  1
