# generated using pymatgen
data_Al4V8CO3
_symmetry_space_group_name_H-M   'P 1'
_cell_length_a   5.80689773
_cell_length_b   5.80659625
_cell_length_c   14.08312304
_cell_angle_alpha   89.99961121
_cell_angle_beta   90.00015619
_cell_angle_gamma   119.99089722
_symmetry_Int_Tables_number   1
_chemical_formula_structural   Al4V8CO3
_chemical_formula_sum   'Al8 V16 C2 O6'
_cell_volume   411.27777466
_cell_formula_units_Z   2
loop_
 _symmetry_equiv_pos_site_id
 _symmetry_equiv_pos_as_xyz
  1  'x, y, z'
loop_
 _atom_site_type_symbol
 _atom_site_label
 _atom_site_symmetry_multiplicity
 _atom_site_fract_x
 _atom_site_fract_y
 _atom_site_fract_z
 _atom_site_occupancy
  Al  Al0  1  0.16651016  0.33463405  0.25000178  1
  Al  Al1  1  0.33361389  0.16724596  0.75075952  1
  Al  Al2  1  0.16581023  0.83331404  0.25076225  1
  Al  Al3  1  0.33296087  0.66594501  0.74999661  1
  Al  Al4  1  0.66651469  0.33462411  0.25000452  1
  Al  Al5  1  0.83359386  0.16723655  0.74923954  1
  Al  Al6  1  0.66579902  0.83331852  0.24924879  1
  Al  Al7  1  0.83293956  0.66593377  0.75000163  1
  V  V8  1  0.16227496  0.33805701  0.91087807  1
  V  V9  1  0.33789623  0.17665930  0.41133411  1
  V  V10  1  0.33302839  0.16696127  0.09540078  1
  V  V11  1  0.17545689  0.33803536  0.58912001  1
  V  V12  1  0.16171527  0.82369355  0.91133673  1
  V  V13  1  0.33735390  0.66230721  0.41087832  1
  V  V14  1  0.32418586  0.66236641  0.08912349  1
  V  V15  1  0.16658446  0.83342490  0.59540102  1
  V  V16  1  0.67545248  0.33802583  0.91087631  1
  V  V17  1  0.83302595  0.16696473  0.40459797  1
  V  V18  1  0.83789600  0.17667016  0.08866262  1
  V  V19  1  0.66227627  0.33806055  0.58912614  1
  V  V20  1  0.66658080  0.83342784  0.90459579  1
  V  V21  1  0.82418275  0.66236411  0.41087918  1
  V  V22  1  0.83735258  0.66230278  0.08911512  1
  V  V23  1  0.66171211  0.82369174  0.58866089  1
  O  O24  1  0.99983827  0.00018684  0.99999923  1
  O  O25  1  0.99984441  0.00016743  0.50000133  1
  O  O26  1  0.99981628  0.50016204  0.50000052  1
  O  O27  1  0.49983952  0.00016409  0.99999823  1
  O  O28  1  0.49983478  0.00018720  0.50000084  1
  O  O29  1  0.49981500  0.50016247  0.99999756  1
  C  C30  1  0.99980602  0.50017217  0.99999638  1
  C  C31  1  0.49982192  0.50019968  0.50000472  1
