# generated using pymatgen
data_Al4V8C3O
_symmetry_space_group_name_H-M   'P 1'
_cell_length_a   5.99319954
_cell_length_b   5.99365586
_cell_length_c   13.51722727
_cell_angle_alpha   90.00000000
_cell_angle_beta   90.00000000
_cell_angle_gamma   119.99800121
_symmetry_Int_Tables_number   1
_chemical_formula_structural   Al4V8C3O
_chemical_formula_sum   'Al8 V16 C6 O2'
_cell_volume   420.51116884
_cell_formula_units_Z   2
loop_
 _symmetry_equiv_pos_site_id
 _symmetry_equiv_pos_as_xyz
  1  'x, y, z'
loop_
 _atom_site_type_symbol
 _atom_site_label
 _atom_site_symmetry_multiplicity
 _atom_site_fract_x
 _atom_site_fract_y
 _atom_site_fract_z
 _atom_site_occupancy
  Al  Al0  1  0.16617350  0.33377601  0.24939505  1
  Al  Al1  1  0.33331092  0.16673686  0.74999788  1
  Al  Al2  1  0.16617350  0.83377601  0.25060495  1
  Al  Al3  1  0.33331092  0.66673687  0.75000212  1
  Al  Al4  1  0.66617234  0.33379500  0.25000222  1
  Al  Al5  1  0.83329810  0.16672966  0.74939165  1
  Al  Al6  1  0.66617234  0.83379500  0.24999778  1
  Al  Al7  1  0.83329810  0.66672967  0.75060835  1
  V  V8  1  0.16635017  0.33342906  0.91845800  1
  V  V9  1  0.32998456  0.16081998  0.41696102  1
  V  V10  1  0.32996155  0.16982253  0.08305361  1
  V  V11  1  0.16045365  0.33047814  0.58308718  1
  V  V12  1  0.16045365  0.83047813  0.91691282  1
  V  V13  1  0.32996155  0.66982254  0.41694639  1
  V  V14  1  0.32998456  0.66081999  0.08303898  1
  V  V15  1  0.16635017  0.83342905  0.58154200  1
  V  V16  1  0.66965325  0.33959233  0.91698088  1
  V  V17  1  0.83326950  0.16695205  0.41846661  1
  V  V18  1  0.83913338  0.16988642  0.08310230  1
  V  V19  1  0.66966738  0.33054701  0.58303451  1
  V  V20  1  0.66966738  0.83054700  0.91696549  1
  V  V21  1  0.83913338  0.66988643  0.41689770  1
  V  V22  1  0.83326950  0.66695206  0.08153339  1
  V  V23  1  0.66965325  0.83959232  0.58301912  1
  C  C24  1  0.99978592  0.00014897  0.00000811  1
  C  C25  1  0.99979061  0.00020843  0.49998842  1
  C  C26  1  0.99979061  0.50020843  0.00001158  1
  C  C27  1  0.99978592  0.50014897  0.49999189  1
  C  C28  1  0.49985150  0.00021159  0.49999075  1
  C  C29  1  0.49985150  0.50021159  0.00000925  1
  O  O30  1  0.49981033  0.00019927  0.00000725  1
  O  O31  1  0.49981033  0.50019927  0.49999275  1
