# generated using pymatgen
data_Al4V8C3O
_symmetry_space_group_name_H-M   'P 1'
_cell_length_a   5.95602982
_cell_length_b   5.95644361
_cell_length_c   13.44898691
_cell_angle_alpha   90.00000000
_cell_angle_beta   90.00000000
_cell_angle_gamma   119.99624658
_symmetry_Int_Tables_number   1
_chemical_formula_structural   Al4V8C3O
_chemical_formula_sum   'Al8 V16 C6 O2'
_cell_volume   413.21923089
_cell_formula_units_Z   2
loop_
 _symmetry_equiv_pos_site_id
 _symmetry_equiv_pos_as_xyz
  1  'x, y, z'
loop_
 _atom_site_type_symbol
 _atom_site_label
 _atom_site_symmetry_multiplicity
 _atom_site_fract_x
 _atom_site_fract_y
 _atom_site_fract_z
 _atom_site_occupancy
  Al  Al0  1  0.16614081  0.33380760  0.24962048  1
  Al  Al1  1  0.33330458  0.16671565  0.75000081  1
  Al  Al2  1  0.16614081  0.83380760  0.25037952  1
  Al  Al3  1  0.33330458  0.66671566  0.74999919  1
  Al  Al4  1  0.66612827  0.33382289  0.25000050  1
  Al  Al5  1  0.83332744  0.16672576  0.74961735  1
  Al  Al6  1  0.66612827  0.83382289  0.24999950  1
  Al  Al7  1  0.83332744  0.66672577  0.75038265  1
  V  V8  1  0.16636678  0.33342114  0.91782427  1
  V  V9  1  0.33021028  0.16128892  0.41625646  1
  V  V10  1  0.33018899  0.16959839  0.08376105  1
  V  V11  1  0.16093694  0.33070498  0.58384783  1
  V  V12  1  0.16093694  0.83070497  0.91615217  1
  V  V13  1  0.33018899  0.66959840  0.41623895  1
  V  V14  1  0.33021028  0.66128893  0.08374354  1
  V  V15  1  0.16636678  0.83342113  0.58217573  1
  V  V16  1  0.66942063  0.33910166  0.91627350  1
  V  V17  1  0.83325843  0.16695065  0.41780027  1
  V  V18  1  0.83869750  0.16967955  0.08385523  1
  V  V19  1  0.66943670  0.33077284  0.58374055  1
  V  V20  1  0.66943670  0.83077283  0.91625945  1
  V  V21  1  0.83869750  0.66967956  0.41614477  1
  V  V22  1  0.83325843  0.66695066  0.08219973  1
  V  V23  1  0.66942063  0.83910165  0.58372650  1
  C  C24  1  0.99980920  0.00018957  0.00000868  1
  C  C25  1  0.99980637  0.00017840  0.49999238  1
  C  C26  1  0.99980637  0.50017840  0.00000762  1
  C  C27  1  0.99980920  0.50018957  0.49999132  1
  C  C28  1  0.49981344  0.00018248  0.49998615  1
  C  C29  1  0.49981344  0.50018248  0.00001385  1
  O  O30  1  0.49982030  0.00019283  0.00000448  1
  O  O31  1  0.49982030  0.50019283  0.49999552  1
