# generated using pymatgen
data_Al4V8C3O
_symmetry_space_group_name_H-M   'P 1'
_cell_length_a   5.91903584
_cell_length_b   5.91933270
_cell_length_c   13.38020693
_cell_angle_alpha   90.00000000
_cell_angle_beta   90.00000000
_cell_angle_gamma   119.99502351
_symmetry_Int_Tables_number   1
_chemical_formula_structural   Al4V8C3O
_chemical_formula_sum   'Al8 V16 C6 O2'
_cell_volume   406.01208272
_cell_formula_units_Z   2
loop_
 _symmetry_equiv_pos_site_id
 _symmetry_equiv_pos_as_xyz
  1  'x, y, z'
loop_
 _atom_site_type_symbol
 _atom_site_label
 _atom_site_symmetry_multiplicity
 _atom_site_fract_x
 _atom_site_fract_y
 _atom_site_fract_z
 _atom_site_occupancy
  Al  Al0  1  0.16613940  0.33380385  0.24971246  1
  Al  Al1  1  0.33332011  0.16672449  0.75000318  1
  Al  Al2  1  0.16613940  0.83380385  0.25028754  1
  Al  Al3  1  0.33332011  0.66672450  0.74999682  1
  Al  Al4  1  0.66614004  0.33382483  0.25000040  1
  Al  Al5  1  0.83332083  0.16672279  0.74971549  1
  Al  Al6  1  0.66614004  0.83382483  0.24999960  1
  Al  Al7  1  0.83332083  0.66672280  0.75028451  1
  V  V8  1  0.16636896  0.33342033  0.91710467  1
  V  V9  1  0.33038244  0.16164304  0.41555919  1
  V  V10  1  0.33036622  0.16942293  0.08445566  1
  V  V11  1  0.16127502  0.33087232  0.58457292  1
  V  V12  1  0.16127502  0.83087231  0.91542708  1
  V  V13  1  0.33036622  0.66942294  0.41554434  1
  V  V14  1  0.33038244  0.66164305  0.08444081  1
  V  V15  1  0.16636896  0.83342032  0.58289533  1
  V  V16  1  0.66924729  0.33874126  0.91555447  1
  V  V17  1  0.83325530  0.16695162  0.41710402  1
  V  V18  1  0.83834529  0.16950947  0.08456906  1
  V  V19  1  0.66926176  0.33095807  0.58445518  1
  V  V20  1  0.66926176  0.83095806  0.91554482  1
  V  V21  1  0.83834529  0.66950948  0.41543094  1
  V  V22  1  0.83325530  0.66695163  0.08289598  1
  V  V23  1  0.66924729  0.83874125  0.58444553  1
  C  C24  1  0.99981478  0.00019362  0.00000049  1
  C  C25  1  0.99980679  0.00018020  0.50000272  1
  C  C26  1  0.99980679  0.50018020  0.99999728  1
  C  C27  1  0.99981478  0.50019362  0.49999951  1
  C  C28  1  0.49981514  0.00018072  0.50000248  1
  C  C29  1  0.49981514  0.50018072  0.99999752  1
  O  O30  1  0.49980729  0.00018376  0.00000288  1
  O  O31  1  0.49980729  0.50018376  0.49999712  1
