# generated using pymatgen
data_Al4V8C3O
_symmetry_space_group_name_H-M   'P 1'
_cell_length_a   5.83747504
_cell_length_b   5.83759371
_cell_length_c   13.23722171
_cell_angle_alpha   90.00000000
_cell_angle_beta   90.00000000
_cell_angle_gamma   119.99074842
_symmetry_Int_Tables_number   1
_chemical_formula_structural   Al4V8C3O
_chemical_formula_sum   'Al8 V16 C6 O2'
_cell_volume   390.68510668
_cell_formula_units_Z   2
loop_
 _symmetry_equiv_pos_site_id
 _symmetry_equiv_pos_as_xyz
  1  'x, y, z'
loop_
 _atom_site_type_symbol
 _atom_site_label
 _atom_site_symmetry_multiplicity
 _atom_site_fract_x
 _atom_site_fract_y
 _atom_site_fract_z
 _atom_site_occupancy
  Al  Al0  1  0.16613601  0.33388177  0.24992447  1
  Al  Al1  1  0.33337485  0.16672265  0.75000163  1
  Al  Al2  1  0.16613601  0.83388177  0.25007553  1
  Al  Al3  1  0.33337485  0.66672266  0.74999837  1
  Al  Al4  1  0.66603218  0.33385312  0.24999949  1
  Al  Al5  1  0.83330237  0.16668451  0.74992701  1
  Al  Al6  1  0.66603218  0.83385312  0.25000051  1
  Al  Al7  1  0.83330237  0.66668452  0.75007299  1
  V  V8  1  0.16640228  0.33341177  0.91566567  1
  V  V9  1  0.33073540  0.16235753  0.41407757  1
  V  V10  1  0.33071531  0.16908295  0.08594455  1
  V  V11  1  0.16199492  0.33120176  0.58608292  1
  V  V12  1  0.16199492  0.83120175  0.91391708  1
  V  V13  1  0.33071531  0.66908296  0.41405545  1
  V  V14  1  0.33073540  0.66235754  0.08592243  1
  V  V15  1  0.16640228  0.83341176  0.58433433  1
  V  V16  1  0.66889931  0.33801335  0.91408705  1
  V  V17  1  0.83323887  0.16695567  0.41564498  1
  V  V18  1  0.83764000  0.16916679  0.08609508  1
  V  V19  1  0.66891320  0.33127658  0.58592519  1
  V  V20  1  0.66891320  0.83127657  0.91407481  1
  V  V21  1  0.83764000  0.66916680  0.41390492  1
  V  V22  1  0.83323887  0.66695568  0.08435502  1
  V  V23  1  0.66889931  0.83801334  0.58591295  1
  C  C24  1  0.99982255  0.00018542  0.00001154  1
  C  C25  1  0.99982470  0.00017938  0.49999183  1
  C  C26  1  0.99982470  0.50017938  0.00000817  1
  C  C27  1  0.99982255  0.50018542  0.49998846  1
  C  C28  1  0.49981410  0.00017649  0.49998619  1
  C  C29  1  0.49981410  0.50017649  0.00001381  1
  O  O30  1  0.49982063  0.00018358  0.00000293  1
  O  O31  1  0.49982063  0.50018358  0.49999707  1
