# generated using pymatgen
data_Al2V4CO
_symmetry_space_group_name_H-M   'P 1'
_cell_length_a   5.64934160
_cell_length_b   2.78791935
_cell_length_c   13.25897690
_cell_angle_alpha   89.99991390
_cell_angle_beta   89.99993133
_cell_angle_gamma   119.66450797
_symmetry_Int_Tables_number   1
_chemical_formula_structural   Al2V4CO
_chemical_formula_sum   'Al4 V8 C2 O2'
_cell_volume   181.45835788
_cell_formula_units_Z   2
loop_
 _symmetry_equiv_pos_site_id
 _symmetry_equiv_pos_as_xyz
  1  'x, y, z'
loop_
 _atom_site_type_symbol
 _atom_site_label
 _atom_site_symmetry_multiplicity
 _atom_site_fract_x
 _atom_site_fract_y
 _atom_site_fract_z
 _atom_site_occupancy
  Al  Al0  1  0.15635394  0.65476410  0.24999985  1
  Al  Al1  1  0.33924652  0.34129684  0.74998448  1
  Al  Al2  1  0.66034314  0.65946893  0.25000051  1
  Al  Al3  1  0.84325636  0.34605719  0.74998440  1
  V  V4  1  0.16722204  0.66855193  0.91162643  1
  V  V5  1  0.32273008  0.32195180  0.40702796  1
  V  V6  1  0.32273646  0.32195143  0.09297660  1
  V  V7  1  0.16722501  0.66854933  0.58838008  1
  V  V8  1  0.67684445  0.67889163  0.90702334  1
  V  V9  1  0.83236881  0.33231225  0.41162609  1
  V  V10  1  0.83235415  0.33229445  0.08838007  1
  V  V11  1  0.67684097  0.67888707  0.59297574  1
  C  C12  1  0.99978341  0.00041855  0.00000983  1
  C  C13  1  0.99978339  0.00041907  0.50000499  1
  O  O14  1  0.49978595  0.00042306  -0.00000118  1
  O  O15  1  0.49979203  0.00042904  0.50000083  1
