# generated using pymatgen
data_Al4V8C3O
_symmetry_space_group_name_H-M   'P 1'
_cell_length_a   5.87440366
_cell_length_b   5.87458729
_cell_length_c   13.30635495
_cell_angle_alpha   90.00000000
_cell_angle_beta   90.00000000
_cell_angle_gamma   119.99179616
_symmetry_Int_Tables_number   1
_chemical_formula_structural   Al4V8C3O
_chemical_formula_sum   'Al8 V16 C6 O2'
_cell_volume   397.71024533
_cell_formula_units_Z   2
loop_
 _symmetry_equiv_pos_site_id
 _symmetry_equiv_pos_as_xyz
  1  'x, y, z'
loop_
 _atom_site_type_symbol
 _atom_site_label
 _atom_site_symmetry_multiplicity
 _atom_site_fract_x
 _atom_site_fract_y
 _atom_site_fract_z
 _atom_site_occupancy
  Al  Al0  1  0.16612106  0.33387700  0.24988424  1
  Al  Al1  1  0.33336282  0.16671539  0.75000037  1
  Al  Al2  1  0.16612106  0.83387700  0.25011576  1
  Al  Al3  1  0.33336282  0.66671540  0.74999963  1
  Al  Al4  1  0.66604383  0.33386165  0.25000081  1
  Al  Al5  1  0.83331519  0.16669046  0.74988741  1
  Al  Al6  1  0.66604383  0.83386165  0.24999919  1
  Al  Al7  1  0.83331519  0.66669047  0.75011259  1
  V  V8  1  0.16639574  0.33340891  0.91636899  1
  V  V9  1  0.33056030  0.16201118  0.41472735  1
  V  V10  1  0.33053789  0.16925259  0.08529375  1
  V  V11  1  0.16165115  0.33102967  0.58542497  1
  V  V12  1  0.16165115  0.83102966  0.91457503  1
  V  V13  1  0.33053789  0.66925260  0.41470625  1
  V  V14  1  0.33056030  0.66201119  0.08527265  1
  V  V15  1  0.16639574  0.83340890  0.58363101  1
  V  V16  1  0.66907723  0.33836045  0.91473856  1
  V  V17  1  0.83324655  0.16695764  0.41634955  1
  V  V18  1  0.83798418  0.16933646  0.08543785  1
  V  V19  1  0.66909084  0.33110742  0.58527603  1
  V  V20  1  0.66909084  0.83110741  0.91472397  1
  V  V21  1  0.83798418  0.66933647  0.41456215  1
  V  V22  1  0.83324655  0.66695765  0.08365045  1
  V  V23  1  0.66907723  0.83836044  0.58526144  1
  C  C24  1  0.99982132  0.00018361  0.00000980  1
  C  C25  1  0.99982391  0.00017903  0.49999136  1
  C  C26  1  0.99982391  0.50017903  0.00000864  1
  C  C27  1  0.99982132  0.50018361  0.49999020  1
  C  C28  1  0.49981614  0.00017748  0.49998765  1
  C  C29  1  0.49981614  0.50017748  0.00001235  1
  O  O30  1  0.49981850  0.00018438  0.00000192  1
  O  O31  1  0.49981850  0.50018438  0.49999808  1
