# generated using pymatgen
data_Al2V4CO
_symmetry_space_group_name_H-M   'P 1'
_cell_length_a   5.91538476
_cell_length_b   2.92277443
_cell_length_c   13.60338095
_cell_angle_alpha   89.99997848
_cell_angle_beta   90.00008213
_cell_angle_gamma   119.62411676
_symmetry_Int_Tables_number   1
_chemical_formula_structural   Al2V4CO
_chemical_formula_sum   'Al4 V8 C2 O2'
_cell_volume   204.45056456
_cell_formula_units_Z   2
loop_
 _symmetry_equiv_pos_site_id
 _symmetry_equiv_pos_as_xyz
  1  'x, y, z'
loop_
 _atom_site_type_symbol
 _atom_site_label
 _atom_site_symmetry_multiplicity
 _atom_site_fract_x
 _atom_site_fract_y
 _atom_site_fract_z
 _atom_site_occupancy
  Al  Al0  1  0.15630833  0.65516724  0.24999779  1
  Al  Al1  1  0.33861543  0.34010566  0.74999796  1
  Al  Al2  1  0.66100544  0.66063593  0.24999871  1
  Al  Al3  1  0.84330333  0.34563208  0.74999692  1
  V  V4  1  0.16618786  0.66726913  0.91660520  1
  V  V5  1  0.31854620  0.31867559  0.41044463  1
  V  V6  1  0.31855416  0.31868334  0.08955825  1
  V  V7  1  0.16618267  0.66726397  0.58339638  1
  V  V8  1  0.68102713  0.68215184  0.91044175  1
  V  V9  1  0.83338308  0.33359201  0.41660370  1
  V  V10  1  0.83338664  0.33359591  0.08339807  1
  V  V11  1  0.68102228  0.68214539  0.58955812  1
  C  C12  1  0.99978872  0.00043150  0.00000117  1
  C  C13  1  0.99978495  0.00042759  0.50000075  1
  O  O14  1  0.49978564  0.00044510  0.00000089  1
  O  O15  1  0.49978484  0.00044441  0.49999972  1
