# generated using pymatgen
data_Al2V4CO
_symmetry_space_group_name_H-M   'P 1'
_cell_length_a   5.95578142
_cell_length_b   2.94407721
_cell_length_c   13.65114022
_cell_angle_alpha   90.00019486
_cell_angle_beta   89.99841092
_cell_angle_gamma   119.63216808
_symmetry_Int_Tables_number   1
_chemical_formula_structural   Al2V4CO
_chemical_formula_sum   'Al4 V8 C2 O2'
_cell_volume   208.05843259
_cell_formula_units_Z   2
loop_
 _symmetry_equiv_pos_site_id
 _symmetry_equiv_pos_as_xyz
  1  'x, y, z'
loop_
 _atom_site_type_symbol
 _atom_site_label
 _atom_site_symmetry_multiplicity
 _atom_site_fract_x
 _atom_site_fract_y
 _atom_site_fract_z
 _atom_site_occupancy
  Al  Al0  1  0.15631116  0.65536119  0.24999838  1
  Al  Al1  1  0.33848170  0.33991417  0.75000820  1
  Al  Al2  1  0.66110091  0.66079444  0.25000442  1
  Al  Al3  1  0.84331050  0.34545412  0.75000057  1
  V  V4  1  0.16576750  0.66664494  0.91735741  1
  V  V5  1  0.31787137  0.31816988  0.41107712  1
  V  V6  1  0.31791479  0.31821166  0.08893202  1
  V  V7  1  0.16571853  0.66659791  0.58262375  1
  V  V8  1  0.68173771  0.68269092  0.91108804  1
  V  V9  1  0.83378369  0.33419406  0.41734099  1
  V  V10  1  0.83383932  0.33424889  0.08264339  1
  V  V11  1  0.68168974  0.68264190  0.58891781  1
  C  C12  1  0.99975228  0.00039311  0.00000249  1
  C  C13  1  0.99980044  0.00043909  0.50000104  1
  O  O14  1  0.49980961  0.00047114  0.00000913  1
  O  O15  1  0.49977744  0.00043925  0.49999523  1
