# generated using pymatgen
data_Ti8Al4CO3
_symmetry_space_group_name_H-M   'P 1'
_cell_length_a   5.92809962
_cell_length_b   5.92740770
_cell_length_c   13.68235474
_cell_angle_alpha   90.00000000
_cell_angle_beta   90.00000000
_cell_angle_gamma   120.00386142
_symmetry_Int_Tables_number   1
_chemical_formula_structural   Ti8Al4CO3
_chemical_formula_sum   'Ti16 Al8 C2 O6'
_cell_volume   416.34645519
_cell_formula_units_Z   2
loop_
 _symmetry_equiv_pos_site_id
 _symmetry_equiv_pos_as_xyz
  1  'x, y, z'
loop_
 _atom_site_type_symbol
 _atom_site_label
 _atom_site_symmetry_multiplicity
 _atom_site_fract_x
 _atom_site_fract_y
 _atom_site_fract_z
 _atom_site_occupancy
  Ti  Ti0  1  0.16508222  0.33501290  0.08882552  1
  Ti  Ti1  1  0.33495454  0.16990905  0.58856891  1
  Ti  Ti2  1  0.33332723  0.16665443  0.90895539  1
  Ti  Ti3  1  0.16993066  0.33501290  0.41117448  1
  Ti  Ti4  1  0.16504546  0.83009094  0.08856891  1
  Ti  Ti5  1  0.33491778  0.66498711  0.58882552  1
  Ti  Ti6  1  0.33006934  0.66498711  0.91117448  1
  Ti  Ti7  1  0.16667277  0.83334556  0.40895539  1
  Ti  Ti8  1  0.66993067  0.33501290  0.08882552  1
  Ti  Ti9  1  0.83332722  0.16665443  0.59104461  1
  Ti  Ti10  1  0.83495453  0.16990905  0.91143109  1
  Ti  Ti11  1  0.66508223  0.33501290  0.41117448  1
  Ti  Ti12  1  0.66667278  0.83334556  0.09104461  1
  Ti  Ti13  1  0.83006933  0.66498711  0.58882552  1
  Ti  Ti14  1  0.83491777  0.66498711  0.91117448  1
  Ti  Ti15  1  0.66504547  0.83009094  0.41143109  1
  Al  Al16  1  0.16674553  0.33349109  0.75000000  1
  Al  Al17  1  0.33340432  0.16680863  0.24997353  1
  Al  Al18  1  0.16659568  0.83319136  0.74997353  1
  Al  Al19  1  0.33325447  0.66650892  0.25000000  1
  Al  Al20  1  0.66674554  0.33349109  0.75000000  1
  Al  Al21  1  0.83340431  0.16680863  0.25002647  1
  Al  Al22  1  0.66659569  0.83319136  0.75002647  1
  Al  Al23  1  0.83325446  0.66650892  0.25000000  1
  O  O24  1  0.00000000  0.00000000  0.00000000  1
  O  O25  1  0.00000000  0.00000000  0.50000000  1
  O  O26  1  0.00000000  0.50000000  0.50000000  1
  O  O27  1  0.50000000  0.00000000  0.00000000  1
  O  O28  1  0.50000000  0.00000000  0.50000000  1
  O  O29  1  0.50000000  0.50000000  0.00000000  1
  C  C30  1  0.00000000  0.50000000  0.00000000  1
  C  C31  1  0.50000000  0.50000000  0.50000000  1
