# generated using pymatgen
data_Al2V4CO
_symmetry_space_group_name_H-M   'P 1'
_cell_length_a   5.82824131
_cell_length_b   2.87709473
_cell_length_c   13.49867449
_cell_angle_alpha   90.00002427
_cell_angle_beta   90.00004856
_cell_angle_gamma   119.61748078
_symmetry_Int_Tables_number   1
_chemical_formula_structural   Al2V4CO
_chemical_formula_sum   'Al4 V8 C2 O2'
_cell_volume   196.77710450
_cell_formula_units_Z   2
loop_
 _symmetry_equiv_pos_site_id
 _symmetry_equiv_pos_as_xyz
  1  'x, y, z'
loop_
 _atom_site_type_symbol
 _atom_site_label
 _atom_site_symmetry_multiplicity
 _atom_site_fract_x
 _atom_site_fract_y
 _atom_site_fract_z
 _atom_site_occupancy
  Al  Al0  1  0.15625486  0.65494018  0.25000361  1
  Al  Al1  1  0.33888558  0.34050413  0.74999773  1
  Al  Al2  1  0.66074208  0.66024008  0.25000237  1
  Al  Al3  1  0.84336349  0.34585855  0.74999951  1
  V  V4  1  0.16662564  0.66788230  0.91486568  1
  V  V5  1  0.31996823  0.31936379  0.40919803  1
  V  V6  1  0.31997087  0.31936668  0.09080489  1
  V  V7  1  0.16661173  0.66786836  0.58513115  1
  V  V8  1  0.67961199  0.68148523  0.90920603  1
  V  V9  1  0.83293854  0.33296492  0.41485361  1
  V  V10  1  0.83295136  0.33297902  0.08514468  1
  V  V11  1  0.67960610  0.68148180  0.59079273  1
  C  C12  1  0.99978682  0.00043002  0.00000548  1
  C  C13  1  0.99978216  0.00042456  0.49999086  1
  O  O14  1  0.49978561  0.00044151  0.00000529  1
  O  O15  1  0.49978162  0.00043555  0.49999836  1
