# generated using pymatgen
data_Ti8Al4CO3
_symmetry_space_group_name_H-M   'P 1'
_cell_length_a   6.09827339
_cell_length_b   6.09783067
_cell_length_c   14.01216590
_cell_angle_alpha   90.00000000
_cell_angle_beta   90.00000000
_cell_angle_gamma   120.00240167
_symmetry_Int_Tables_number   1
_chemical_formula_structural   Ti8Al4CO3
_chemical_formula_sum   'Ti16 Al8 C2 O6'
_cell_volume   451.24005331
_cell_formula_units_Z   2
loop_
 _symmetry_equiv_pos_site_id
 _symmetry_equiv_pos_as_xyz
  1  'x, y, z'
loop_
 _atom_site_type_symbol
 _atom_site_label
 _atom_site_symmetry_multiplicity
 _atom_site_fract_x
 _atom_site_fract_y
 _atom_site_fract_z
 _atom_site_occupancy
  Ti  Ti0  1  0.16433386  0.33576702  0.08686656  1
  Ti  Ti1  1  0.33573069  0.17146135  0.58671414  1
  Ti  Ti2  1  0.33332411  0.16664820  0.91034514  1
  Ti  Ti3  1  0.17143314  0.33576702  0.41313344  1
  Ti  Ti4  1  0.16426931  0.82853864  0.08671414  1
  Ti  Ti5  1  0.33566614  0.66423299  0.58686656  1
  Ti  Ti6  1  0.32856686  0.66423299  0.91313344  1
  Ti  Ti7  1  0.16667589  0.83335179  0.41034514  1
  Ti  Ti8  1  0.67143315  0.33576702  0.08686656  1
  Ti  Ti9  1  0.83332410  0.16664820  0.58965486  1
  Ti  Ti10  1  0.83573068  0.17146135  0.91328586  1
  Ti  Ti11  1  0.66433387  0.33576702  0.41313344  1
  Ti  Ti12  1  0.66667590  0.83335179  0.08965486  1
  Ti  Ti13  1  0.82856685  0.66423299  0.58686656  1
  Ti  Ti14  1  0.83566613  0.66423299  0.91313344  1
  Ti  Ti15  1  0.66426932  0.82853864  0.41328586  1
  Al  Al16  1  0.16671202  0.33342407  0.75000000  1
  Al  Al17  1  0.33335994  0.16671987  0.25002732  1
  Al  Al18  1  0.16664006  0.83328012  0.75002732  1
  Al  Al19  1  0.33328798  0.66657594  0.25000000  1
  Al  Al20  1  0.66671203  0.33342407  0.75000000  1
  Al  Al21  1  0.83335993  0.16671987  0.24997268  1
  Al  Al22  1  0.66664007  0.83328012  0.74997268  1
  Al  Al23  1  0.83328797  0.66657594  0.25000000  1
  O  O24  1  0.00000000  0.00000000  -0.00000000  1
  O  O25  1  0.00000000  0.00000000  0.50000000  1
  O  O26  1  0.00000000  0.50000000  0.50000000  1
  O  O27  1  0.50000000  0.00000000  -0.00000000  1
  O  O28  1  0.50000000  0.00000000  0.50000000  1
  O  O29  1  0.50000000  0.50000000  -0.00000000  1
  C  C30  1  0.00000000  0.50000000  -0.00000000  1
  C  C31  1  0.50000000  0.50000000  0.50000000  1
