# generated using pymatgen
data_Ti8Al4CO3
_symmetry_space_group_name_H-M   'P 1'
_cell_length_a   6.05506269
_cell_length_b   6.05470975
_cell_length_c   13.92198928
_cell_angle_alpha   90.00000000
_cell_angle_beta   90.00000000
_cell_angle_gamma   120.00192811
_symmetry_Int_Tables_number   1
_chemical_formula_structural   Ti8Al4CO3
_chemical_formula_sum   'Ti16 Al8 C2 O6'
_cell_volume   442.01342640
_cell_formula_units_Z   2
loop_
 _symmetry_equiv_pos_site_id
 _symmetry_equiv_pos_as_xyz
  1  'x, y, z'
loop_
 _atom_site_type_symbol
 _atom_site_label
 _atom_site_symmetry_multiplicity
 _atom_site_fract_x
 _atom_site_fract_y
 _atom_site_fract_z
 _atom_site_occupancy
  Ti  Ti0  1  0.16452316  0.33556597  0.08739038  1
  Ti  Ti1  1  0.33553018  0.17106032  0.58722962  1
  Ti  Ti2  1  0.33331899  0.16663796  0.90995162  1
  Ti  Ti3  1  0.17104279  0.33556597  0.41260962  1
  Ti  Ti4  1  0.16446982  0.82893967  0.08722962  1
  Ti  Ti5  1  0.33547684  0.66443404  0.58739038  1
  Ti  Ti6  1  0.32895721  0.66443404  0.91260962  1
  Ti  Ti7  1  0.16668101  0.83336203  0.40995162  1
  Ti  Ti8  1  0.67104280  0.33556597  0.08739038  1
  Ti  Ti9  1  0.83331898  0.16663796  0.59004838  1
  Ti  Ti10  1  0.83553017  0.17106032  0.91277038  1
  Ti  Ti11  1  0.66452317  0.33556597  0.41260962  1
  Ti  Ti12  1  0.66668102  0.83336203  0.09004838  1
  Ti  Ti13  1  0.82895720  0.66443404  0.58739038  1
  Ti  Ti14  1  0.83547683  0.66443404  0.91260962  1
  Ti  Ti15  1  0.66446983  0.82893967  0.41277038  1
  Al  Al16  1  0.16672494  0.33344992  0.75000000  1
  Al  Al17  1  0.33337374  0.16674748  0.25001426  1
  Al  Al18  1  0.16662626  0.83325251  0.75001426  1
  Al  Al19  1  0.33327506  0.66655009  0.25000000  1
  Al  Al20  1  0.66672495  0.33344992  0.75000000  1
  Al  Al21  1  0.83337373  0.16674748  0.24998574  1
  Al  Al22  1  0.66662627  0.83325251  0.74998574  1
  Al  Al23  1  0.83327505  0.66655009  0.25000000  1
  O  O24  1  0.00000000  0.00000000  0.00000000  1
  O  O25  1  0.00000000  0.00000000  0.50000000  1
  O  O26  1  0.00000000  0.50000000  0.50000000  1
  O  O27  1  0.50000000  0.00000000  0.00000000  1
  O  O28  1  0.50000000  0.00000000  0.50000000  1
  O  O29  1  0.50000000  0.50000000  0.00000000  1
  C  C30  1  0.00000000  0.50000000  0.00000000  1
  C  C31  1  0.50000000  0.50000000  0.50000000  1
