# generated using pymatgen
data_Al2V4CO
_symmetry_space_group_name_H-M   'P 1'
_cell_length_a   5.87507194
_cell_length_b   2.90098241
_cell_length_c   13.55732561
_cell_angle_alpha   89.99993013
_cell_angle_beta   90.00033323
_cell_angle_gamma   119.61221693
_symmetry_Int_Tables_number   1
_chemical_formula_structural   Al2V4CO
_chemical_formula_sum   'Al4 V8 C2 O2'
_cell_volume   200.88464663
_cell_formula_units_Z   2
loop_
 _symmetry_equiv_pos_site_id
 _symmetry_equiv_pos_as_xyz
  1  'x, y, z'
loop_
 _atom_site_type_symbol
 _atom_site_label
 _atom_site_symmetry_multiplicity
 _atom_site_fract_x
 _atom_site_fract_y
 _atom_site_fract_z
 _atom_site_occupancy
  Al  Al0  1  0.15628138  0.65500791  0.25000972  1
  Al  Al1  1  0.33878842  0.34035314  0.75000877  1
  Al  Al2  1  0.66084380  0.66038694  0.25000480  1
  Al  Al3  1  0.84333768  0.34578702  0.75000632  1
  V  V4  1  0.16637137  0.66755881  0.91577861  1
  V  V5  1  0.31925187  0.31891358  0.40985316  1
  V  V6  1  0.31924354  0.31890488  0.09013909  1
  V  V7  1  0.16636224  0.66754918  0.58421051  1
  V  V8  1  0.68032451  0.68192390  0.90986023  1
  V  V9  1  0.83319602  0.33330110  0.41577982  1
  V  V10  1  0.83321116  0.33331559  0.08421619  1
  V  V11  1  0.68032831  0.68192774  0.59014384  1
  C  C12  1  0.99977900  0.00042385  0.99999823  1
  C  C13  1  0.99977711  0.00042199  0.49999082  1
  O  O14  1  0.49978604  0.00044679  0.00000013  1
  O  O15  1  0.49978425  0.00044425  0.49999974  1
