# generated using pymatgen
data_Ti8Al4CO3
_symmetry_space_group_name_H-M   'P 1'
_cell_length_a   5.97096816
_cell_length_b   5.97014732
_cell_length_c   13.77420673
_cell_angle_alpha   90.00000000
_cell_angle_beta   90.00000000
_cell_angle_gamma   120.00454816
_symmetry_Int_Tables_number   1
_chemical_formula_structural   Ti8Al4CO3
_chemical_formula_sum   'Ti16 Al8 C2 O6'
_cell_volume   425.21357996
_cell_formula_units_Z   2
loop_
 _symmetry_equiv_pos_site_id
 _symmetry_equiv_pos_as_xyz
  1  'x, y, z'
loop_
 _atom_site_type_symbol
 _atom_site_label
 _atom_site_symmetry_multiplicity
 _atom_site_fract_x
 _atom_site_fract_y
 _atom_site_fract_z
 _atom_site_occupancy
  Ti  Ti0  1  0.16484366  0.33529209  0.08833890  1
  Ti  Ti1  1  0.33522864  0.17045726  0.58809736  1
  Ti  Ti2  1  0.33334667  0.16669331  0.90920386  1
  Ti  Ti3  1  0.17044841  0.33529209  0.41166110  1
  Ti  Ti4  1  0.16477136  0.82954273  0.08809736  1
  Ti  Ti5  1  0.33515634  0.66470792  0.58833890  1
  Ti  Ti6  1  0.32955159  0.66470792  0.91166110  1
  Ti  Ti7  1  0.16665333  0.83330668  0.40920386  1
  Ti  Ti8  1  0.67044842  0.33529209  0.08833890  1
  Ti  Ti9  1  0.83334666  0.16669331  0.59079614  1
  Ti  Ti10  1  0.83522863  0.17045726  0.91190264  1
  Ti  Ti11  1  0.66484367  0.33529209  0.41166110  1
  Ti  Ti12  1  0.66665334  0.83330668  0.09079614  1
  Ti  Ti13  1  0.82955158  0.66470792  0.58833890  1
  Ti  Ti14  1  0.83515633  0.66470792  0.91166110  1
  Ti  Ti15  1  0.66477137  0.82954273  0.41190264  1
  Al  Al16  1  0.16669498  0.33338999  0.75000000  1
  Al  Al17  1  0.33335272  0.16670543  0.25002436  1
  Al  Al18  1  0.16664728  0.83329456  0.75002436  1
  Al  Al19  1  0.33330502  0.66661002  0.25000000  1
  Al  Al20  1  0.66669499  0.33338999  0.75000000  1
  Al  Al21  1  0.83335271  0.16670543  0.24997564  1
  Al  Al22  1  0.66664729  0.83329456  0.74997564  1
  Al  Al23  1  0.83330501  0.66661002  0.25000000  1
  O  O24  1  0.00000000  0.00000000  0.00000000  1
  O  O25  1  0.00000000  0.00000000  0.50000000  1
  O  O26  1  0.00000000  0.50000000  0.50000000  1
  O  O27  1  0.50000000  0.00000000  0.00000000  1
  O  O28  1  0.50000000  0.00000000  0.50000000  1
  O  O29  1  0.50000000  0.50000000  0.00000000  1
  C  C30  1  0.00000000  0.50000000  0.00000000  1
  C  C31  1  0.50000000  0.50000000  0.50000000  1
