# generated using pymatgen
data_Ti8Al4CO3
_symmetry_space_group_name_H-M   'P 1'
_cell_length_a   5.88393735
_cell_length_b   5.88327844
_cell_length_c   13.59677813
_cell_angle_alpha   90.00000000
_cell_angle_beta   90.00000000
_cell_angle_gamma   120.00370473
_symmetry_Int_Tables_number   1
_chemical_formula_structural   Ti8Al4CO3
_chemical_formula_sum   'Ti16 Al8 C2 O6'
_cell_volume   407.60346879
_cell_formula_units_Z   2
loop_
 _symmetry_equiv_pos_site_id
 _symmetry_equiv_pos_as_xyz
  1  'x, y, z'
loop_
 _atom_site_type_symbol
 _atom_site_label
 _atom_site_symmetry_multiplicity
 _atom_site_fract_x
 _atom_site_fract_y
 _atom_site_fract_z
 _atom_site_occupancy
  Ti  Ti0  1  0.16514049  0.33492864  0.08933066  1
  Ti  Ti1  1  0.33486395  0.16972788  0.58906508  1
  Ti  Ti2  1  0.33331155  0.16662306  0.90852469  1
  Ti  Ti3  1  0.16978813  0.33492864  0.41066934  1
  Ti  Ti4  1  0.16513605  0.83027211  0.08906508  1
  Ti  Ti5  1  0.33485951  0.66507137  0.58933066  1
  Ti  Ti6  1  0.33021187  0.66507137  0.91066934  1
  Ti  Ti7  1  0.16668845  0.83337693  0.40852469  1
  Ti  Ti8  1  0.66978814  0.33492864  0.08933066  1
  Ti  Ti9  1  0.83331154  0.16662306  0.59147531  1
  Ti  Ti10  1  0.83486394  0.16972788  0.91093492  1
  Ti  Ti11  1  0.66514050  0.33492864  0.41066934  1
  Ti  Ti12  1  0.66668846  0.83337693  0.09147531  1
  Ti  Ti13  1  0.83021186  0.66507137  0.58933066  1
  Ti  Ti14  1  0.83485950  0.66507137  0.91066934  1
  Ti  Ti15  1  0.66513606  0.83027211  0.41093492  1
  Al  Al16  1  0.16676051  0.33352104  0.75000000  1
  Al  Al17  1  0.33342167  0.16684333  0.24998713  1
  Al  Al18  1  0.16657833  0.83315666  0.74998713  1
  Al  Al19  1  0.33323949  0.66647897  0.25000000  1
  Al  Al20  1  0.66676052  0.33352104  0.75000000  1
  Al  Al21  1  0.83342166  0.16684333  0.25001287  1
  Al  Al22  1  0.66657834  0.83315666  0.75001287  1
  Al  Al23  1  0.83323948  0.66647897  0.25000000  1
  O  O24  1  0.00000000  0.00000000  0.00000000  1
  O  O25  1  0.00000000  0.00000000  0.50000000  1
  O  O26  1  0.00000000  0.50000000  0.50000000  1
  O  O27  1  0.50000000  0.00000000  0.00000000  1
  O  O28  1  0.50000000  0.00000000  0.50000000  1
  O  O29  1  0.50000000  0.50000000  0.00000000  1
  C  C30  1  0.00000000  0.50000000  0.00000000  1
  C  C31  1  0.50000000  0.50000000  0.50000000  1
