# generated using pymatgen
data_Ti8Al4CO3
_symmetry_space_group_name_H-M   'P 1'
_cell_length_a   6.01506472
_cell_length_b   6.01434743
_cell_length_c   13.85968485
_cell_angle_alpha   90.00000000
_cell_angle_beta   90.00000000
_cell_angle_gamma   120.00394515
_symmetry_Int_Tables_number   1
_chemical_formula_structural   Ti8Al4CO3
_chemical_formula_sum   'Ti16 Al8 C2 O6'
_cell_volume   434.20571728
_cell_formula_units_Z   2
loop_
 _symmetry_equiv_pos_site_id
 _symmetry_equiv_pos_as_xyz
  1  'x, y, z'
loop_
 _atom_site_type_symbol
 _atom_site_label
 _atom_site_symmetry_multiplicity
 _atom_site_fract_x
 _atom_site_fract_y
 _atom_site_fract_z
 _atom_site_occupancy
  Ti  Ti0  1  0.16458239  0.33551285  0.08786303  1
  Ti  Ti1  1  0.33545584  0.17091165  0.58759703  1
  Ti  Ti2  1  0.33332755  0.16665507  0.90956488  1
  Ti  Ti3  1  0.17093044  0.33551285  0.41213697  1
  Ti  Ti4  1  0.16454416  0.82908834  0.08759703  1
  Ti  Ti5  1  0.33541761  0.66448716  0.58786303  1
  Ti  Ti6  1  0.32906956  0.66448716  0.91213697  1
  Ti  Ti7  1  0.16667245  0.83334492  0.40956488  1
  Ti  Ti8  1  0.67093045  0.33551285  0.08786303  1
  Ti  Ti9  1  0.83332754  0.16665507  0.59043512  1
  Ti  Ti10  1  0.83545583  0.17091165  0.91240297  1
  Ti  Ti11  1  0.66458240  0.33551285  0.41213697  1
  Ti  Ti12  1  0.66667246  0.83334492  0.09043512  1
  Ti  Ti13  1  0.82906955  0.66448716  0.58786303  1
  Ti  Ti14  1  0.83541760  0.66448716  0.91213697  1
  Ti  Ti15  1  0.66454417  0.82908834  0.41240297  1
  Al  Al16  1  0.16673117  0.33346237  0.75000000  1
  Al  Al17  1  0.33338885  0.16677770  0.25002042  1
  Al  Al18  1  0.16661115  0.83322229  0.75002042  1
  Al  Al19  1  0.33326883  0.66653764  0.25000000  1
  Al  Al20  1  0.66673118  0.33346237  0.75000000  1
  Al  Al21  1  0.83338884  0.16677770  0.24997958  1
  Al  Al22  1  0.66661116  0.83322229  0.74997958  1
  Al  Al23  1  0.83326882  0.66653764  0.25000000  1
  O  O24  1  0.00000000  0.00000000  0.00000000  1
  O  O25  1  0.00000000  0.00000000  0.50000000  1
  O  O26  1  0.00000000  0.50000000  0.50000000  1
  O  O27  1  0.50000000  0.00000000  0.00000000  1
  O  O28  1  0.50000000  0.00000000  0.50000000  1
  O  O29  1  0.50000000  0.50000000  0.00000000  1
  C  C30  1  0.00000000  0.50000000  0.00000000  1
  C  C31  1  0.50000000  0.50000000  0.50000000  1
