# generated using pymatgen
data_Ti8Al4C3O
_symmetry_space_group_name_H-M   'P 1'
_cell_length_a   6.28353741
_cell_length_b   6.28292393
_cell_length_c   14.13203657
_cell_angle_alpha   90.00000000
_cell_angle_beta   90.00000000
_cell_angle_gamma   119.99677043
_symmetry_Int_Tables_number   1
_chemical_formula_structural   Ti8Al4C3O
_chemical_formula_sum   'Ti16 Al8 C6 O2'
_cell_volume   483.18731408
_cell_formula_units_Z   2
loop_
 _symmetry_equiv_pos_site_id
 _symmetry_equiv_pos_as_xyz
  1  'x, y, z'
loop_
 _atom_site_type_symbol
 _atom_site_label
 _atom_site_symmetry_multiplicity
 _atom_site_fract_x
 _atom_site_fract_y
 _atom_site_fract_z
 _atom_site_occupancy
  Ti  Ti0  1  0.16674374  0.33337188  0.08262488  1
  Ti  Ti1  1  0.33120157  0.16221830  0.58199213  1
  Ti  Ti2  1  0.33120157  0.16898325  0.91800787  1
  Ti  Ti3  1  0.16212960  0.33106481  0.41785080  1
  Ti  Ti4  1  0.16212960  0.83106480  0.08214920  1
  Ti  Ti5  1  0.33120157  0.66898326  0.58199213  1
  Ti  Ti6  1  0.33120157  0.66221831  0.91800787  1
  Ti  Ti7  1  0.16674374  0.83337187  0.41737512  1
  Ti  Ti8  1  0.66879844  0.33778170  0.08199213  1
  Ti  Ti9  1  0.83325625  0.16662812  0.58262488  1
  Ti  Ti10  1  0.83787039  0.16893519  0.91785080  1
  Ti  Ti11  1  0.66879844  0.33101675  0.41800787  1
  Ti  Ti12  1  0.66879844  0.83101674  0.08199213  1
  Ti  Ti13  1  0.83787039  0.66893520  0.58214920  1
  Ti  Ti14  1  0.83325625  0.66662813  0.91737512  1
  Ti  Ti15  1  0.66879844  0.83778169  0.41800787  1
  Al  Al16  1  0.16761981  0.33380991  0.75045731  1
  Al  Al17  1  0.33434299  0.16717149  0.25000000  1
  Al  Al18  1  0.16761981  0.83380990  0.74954269  1
  Al  Al19  1  0.33434299  0.66717150  0.25000000  1
  Al  Al20  1  0.66565702  0.33282851  0.75000000  1
  Al  Al21  1  0.83238018  0.16619009  0.25045731  1
  Al  Al22  1  0.66565702  0.83282850  0.75000000  1
  Al  Al23  1  0.83238018  0.66619010  0.24954269  1
  C  C24  1  -0.00000000  -0.00000000  0.00000000  1
  C  C25  1  -0.00000000  -0.00000000  0.50000000  1
  C  C26  1  -0.00000000  0.50000000  0.00000000  1
  C  C27  1  -0.00000000  0.50000000  0.50000000  1
  C  C28  1  0.50000000  -0.00000000  0.50000000  1
  C  C29  1  0.50000000  0.50000000  0.00000000  1
  O  O30  1  0.50000000  -0.00000000  0.00000000  1
  O  O31  1  0.50000000  0.50000000  0.50000000  1
