# generated using pymatgen
data_Ti8Al4C3O
_symmetry_space_group_name_H-M   'P 1'
_cell_length_a   6.16645039
_cell_length_b   6.16594431
_cell_length_c   13.87801703
_cell_angle_alpha   90.00000000
_cell_angle_beta   90.00000000
_cell_angle_gamma   119.99728511
_symmetry_Int_Tables_number   1
_chemical_formula_structural   Ti8Al4C3O
_chemical_formula_sum   'Ti16 Al8 C6 O2'
_cell_volume   456.98797055
_cell_formula_units_Z   2
loop_
 _symmetry_equiv_pos_site_id
 _symmetry_equiv_pos_as_xyz
  1  'x, y, z'
loop_
 _atom_site_type_symbol
 _atom_site_label
 _atom_site_symmetry_multiplicity
 _atom_site_fract_x
 _atom_site_fract_y
 _atom_site_fract_z
 _atom_site_occupancy
  Ti  Ti0  1  0.16669179  0.33334591  0.08450233  1
  Ti  Ti1  1  0.33174959  0.16339297  0.58388408  1
  Ti  Ti2  1  0.33174959  0.16835661  0.91611592  1
  Ti  Ti3  1  0.16332523  0.33166262  0.41590781  1
  Ti  Ti4  1  0.16332523  0.83166261  0.08409219  1
  Ti  Ti5  1  0.33174959  0.66835662  0.58388408  1
  Ti  Ti6  1  0.33174959  0.66339298  0.91611592  1
  Ti  Ti7  1  0.16669179  0.83334590  0.41549767  1
  Ti  Ti8  1  0.66825042  0.33660703  0.08388408  1
  Ti  Ti9  1  0.83330820  0.16665409  0.58450233  1
  Ti  Ti10  1  0.83667476  0.16833738  0.91590781  1
  Ti  Ti11  1  0.66825042  0.33164339  0.41611592  1
  Ti  Ti12  1  0.66825042  0.83164338  0.08388408  1
  Ti  Ti13  1  0.83667476  0.66833739  0.58409219  1
  Ti  Ti14  1  0.83330820  0.66665410  0.91549767  1
  Ti  Ti15  1  0.66825042  0.83660702  0.41611592  1
  Al  Al16  1  0.16762543  0.33381272  0.75037144  1
  Al  Al17  1  0.33432920  0.16716460  0.25000000  1
  Al  Al18  1  0.16762543  0.83381271  0.74962856  1
  Al  Al19  1  0.33432920  0.66716461  0.25000000  1
  Al  Al20  1  0.66567081  0.33283540  0.75000000  1
  Al  Al21  1  0.83237456  0.16618728  0.25037144  1
  Al  Al22  1  0.66567081  0.83283539  0.75000000  1
  Al  Al23  1  0.83237456  0.66618729  0.24962856  1
  C  C24  1  -0.00000000  -0.00000000  -0.00000000  1
  C  C25  1  -0.00000000  -0.00000000  0.50000000  1
  C  C26  1  -0.00000000  0.50000000  -0.00000000  1
  C  C27  1  -0.00000000  0.50000000  0.50000000  1
  C  C28  1  0.50000000  -0.00000000  0.50000000  1
  C  C29  1  0.50000000  0.50000000  -0.00000000  1
  O  O30  1  0.50000000  -0.00000000  -0.00000000  1
  O  O31  1  0.50000000  0.50000000  0.50000000  1
