# generated using pymatgen
data_Ti8Al4CO3
_symmetry_space_group_name_H-M   'P 1'
_cell_length_a   6.17222967
_cell_length_b   6.17164232
_cell_length_c   14.16728200
_cell_angle_alpha   90.00000000
_cell_angle_beta   90.00000000
_cell_angle_gamma   120.00314817
_symmetry_Int_Tables_number   1
_chemical_formula_structural   Ti8Al4CO3
_chemical_formula_sum   'Ti16 Al8 C2 O6'
_cell_volume   467.35427381
_cell_formula_units_Z   2
loop_
 _symmetry_equiv_pos_site_id
 _symmetry_equiv_pos_as_xyz
  1  'x, y, z'
loop_
 _atom_site_type_symbol
 _atom_site_label
 _atom_site_symmetry_multiplicity
 _atom_site_fract_x
 _atom_site_fract_y
 _atom_site_fract_z
 _atom_site_occupancy
  Ti  Ti0  1  0.16392635  0.33607428  0.08596381  1
  Ti  Ti1  1  0.33611262  0.17222522  0.58570821  1
  Ti  Ti2  1  0.33330872  0.16661741  0.91118500  1
  Ti  Ti3  1  0.17214792  0.33607428  0.41403619  1
  Ti  Ti4  1  0.16388738  0.82777477  0.08570821  1
  Ti  Ti5  1  0.33607365  0.66392573  0.58596381  1
  Ti  Ti6  1  0.32785208  0.66392573  0.91403619  1
  Ti  Ti7  1  0.16669128  0.83338258  0.41118500  1
  Ti  Ti8  1  0.67214793  0.33607428  0.08596381  1
  Ti  Ti9  1  0.83330871  0.16661741  0.58881500  1
  Ti  Ti10  1  0.83611261  0.17222522  0.91429179  1
  Ti  Ti11  1  0.66392636  0.33607428  0.41403619  1
  Ti  Ti12  1  0.66669129  0.83338258  0.08881500  1
  Ti  Ti13  1  0.82785207  0.66392573  0.58596381  1
  Ti  Ti14  1  0.83607364  0.66392573  0.91403619  1
  Ti  Ti15  1  0.66388739  0.82777477  0.41429179  1
  Al  Al16  1  0.16674772  0.33349548  0.75000000  1
  Al  Al17  1  0.33339249  0.16678496  0.25009612  1
  Al  Al18  1  0.16660751  0.83321503  0.75009612  1
  Al  Al19  1  0.33325228  0.66650453  0.25000000  1
  Al  Al20  1  0.66674773  0.33349548  0.75000000  1
  Al  Al21  1  0.83339248  0.16678496  0.24990388  1
  Al  Al22  1  0.66660752  0.83321503  0.74990388  1
  Al  Al23  1  0.83325227  0.66650453  0.25000000  1
  O  O24  1  -0.00000000  0.00000000  0.00000000  1
  O  O25  1  -0.00000000  0.00000000  0.50000000  1
  O  O26  1  -0.00000000  0.50000000  0.50000000  1
  O  O27  1  0.50000000  0.00000000  0.00000000  1
  O  O28  1  0.50000000  0.00000000  0.50000000  1
  O  O29  1  0.50000000  0.50000000  0.00000000  1
  C  C30  1  -0.00000000  0.50000000  0.00000000  1
  C  C31  1  0.50000000  0.50000000  0.50000000  1
