# generated using pymatgen
data_Ti8Al4CO3
_symmetry_space_group_name_H-M   'P 1'
_cell_length_a   6.13532567
_cell_length_b   6.13483013
_cell_length_c   14.08932245
_cell_angle_alpha   90.00000000
_cell_angle_beta   90.00000000
_cell_angle_gamma   120.00267189
_symmetry_Int_Tables_number   1
_chemical_formula_structural   Ti8Al4CO3
_chemical_formula_sum   'Ti16 Al8 C2 O6'
_cell_volume   459.25004664
_cell_formula_units_Z   2
loop_
 _symmetry_equiv_pos_site_id
 _symmetry_equiv_pos_as_xyz
  1  'x, y, z'
loop_
 _atom_site_type_symbol
 _atom_site_label
 _atom_site_symmetry_multiplicity
 _atom_site_fract_x
 _atom_site_fract_y
 _atom_site_fract_z
 _atom_site_occupancy
  Ti  Ti0  1  0.16416129  0.33595174  0.08640191  1
  Ti  Ti1  1  0.33591273  0.17182545  0.58625743  1
  Ti  Ti2  1  0.33333082  0.16666161  0.91069468  1
  Ti  Ti3  1  0.17179043  0.33595174  0.41359809  1
  Ti  Ti4  1  0.16408727  0.82817454  0.08625743  1
  Ti  Ti5  1  0.33583871  0.66404827  0.58640191  1
  Ti  Ti6  1  0.32820957  0.66404827  0.91359809  1
  Ti  Ti7  1  0.16666918  0.83333838  0.41069468  1
  Ti  Ti8  1  0.67179044  0.33595174  0.08640191  1
  Ti  Ti9  1  0.83333081  0.16666161  0.58930532  1
  Ti  Ti10  1  0.83591272  0.17182545  0.91374257  1
  Ti  Ti11  1  0.66416130  0.33595174  0.41359809  1
  Ti  Ti12  1  0.66666919  0.83333838  0.08930532  1
  Ti  Ti13  1  0.82820956  0.66404827  0.58640191  1
  Ti  Ti14  1  0.83583870  0.66404827  0.91359809  1
  Ti  Ti15  1  0.66408728  0.82817454  0.41374257  1
  Al  Al16  1  0.16670338  0.33340678  0.75000000  1
  Al  Al17  1  0.33335025  0.16670048  0.25004518  1
  Al  Al18  1  0.16664975  0.83329951  0.75004518  1
  Al  Al19  1  0.33329662  0.66659323  0.25000000  1
  Al  Al20  1  0.66670339  0.33340678  0.75000000  1
  Al  Al21  1  0.83335024  0.16670048  0.24995482  1
  Al  Al22  1  0.66664976  0.83329951  0.74995482  1
  Al  Al23  1  0.83329661  0.66659323  0.25000000  1
  O  O24  1  0.00000000  0.00000000  -0.00000000  1
  O  O25  1  0.00000000  0.00000000  0.50000000  1
  O  O26  1  0.00000000  0.50000000  0.50000000  1
  O  O27  1  0.50000000  0.00000000  -0.00000000  1
  O  O28  1  0.50000000  0.00000000  0.50000000  1
  O  O29  1  0.50000000  0.50000000  -0.00000000  1
  C  C30  1  0.00000000  0.50000000  -0.00000000  1
  C  C31  1  0.50000000  0.50000000  0.50000000  1
