# generated using pymatgen
data_Ti8Al4C3O
_symmetry_space_group_name_H-M   'P 1'
_cell_length_a   6.21016767
_cell_length_b   6.20962881
_cell_length_c   13.96898300
_cell_angle_alpha   90.00000000
_cell_angle_beta   90.00000000
_cell_angle_gamma   119.99712963
_symmetry_Int_Tables_number   1
_chemical_formula_structural   Ti8Al4C3O
_chemical_formula_sum   'Ti16 Al8 C6 O2'
_cell_volume   466.52717600
_cell_formula_units_Z   2
loop_
 _symmetry_equiv_pos_site_id
 _symmetry_equiv_pos_as_xyz
  1  'x, y, z'
loop_
 _atom_site_type_symbol
 _atom_site_label
 _atom_site_symmetry_multiplicity
 _atom_site_fract_x
 _atom_site_fract_y
 _atom_site_fract_z
 _atom_site_occupancy
  Ti  Ti0  1  0.16670837  0.33335421  0.08382691  1
  Ti  Ti1  1  0.33156104  0.16299264  0.58322125  1
  Ti  Ti2  1  0.33156104  0.16856837  0.91677875  1
  Ti  Ti3  1  0.16291686  0.33145844  0.41658869  1
  Ti  Ti4  1  0.16291686  0.83145843  0.08341131  1
  Ti  Ti5  1  0.33156104  0.66856838  0.58322125  1
  Ti  Ti6  1  0.33156104  0.66299265  0.91677875  1
  Ti  Ti7  1  0.16670837  0.83335420  0.41617309  1
  Ti  Ti8  1  0.66843897  0.33700736  0.08322125  1
  Ti  Ti9  1  0.83329162  0.16664579  0.58382691  1
  Ti  Ti10  1  0.83708313  0.16854156  0.91658869  1
  Ti  Ti11  1  0.66843897  0.33143163  0.41677875  1
  Ti  Ti12  1  0.66843897  0.83143162  0.08322125  1
  Ti  Ti13  1  0.83708313  0.66854157  0.58341131  1
  Ti  Ti14  1  0.83329162  0.66664580  0.91617309  1
  Ti  Ti15  1  0.66843897  0.83700735  0.41677875  1
  Al  Al16  1  0.16762281  0.33381142  0.75039047  1
  Al  Al17  1  0.33433090  0.16716545  0.25000000  1
  Al  Al18  1  0.16762281  0.83381141  0.74960953  1
  Al  Al19  1  0.33433090  0.66716546  0.25000000  1
  Al  Al20  1  0.66566911  0.33283455  0.75000000  1
  Al  Al21  1  0.83237718  0.16618858  0.25039047  1
  Al  Al22  1  0.66566911  0.83283454  0.75000000  1
  Al  Al23  1  0.83237718  0.66618859  0.24960953  1
  C  C24  1  0.00000000  -0.00000000  0.00000000  1
  C  C25  1  0.00000000  -0.00000000  0.50000000  1
  C  C26  1  0.00000000  0.50000000  0.00000000  1
  C  C27  1  0.00000000  0.50000000  0.50000000  1
  C  C28  1  0.50000000  -0.00000000  0.50000000  1
  C  C29  1  0.50000000  0.50000000  0.00000000  1
  O  O30  1  0.50000000  -0.00000000  0.00000000  1
  O  O31  1  0.50000000  0.50000000  0.50000000  1
