# generated using pymatgen
data_Ti8Al4C3O
_symmetry_space_group_name_H-M   'P 1'
_cell_length_a   6.08483308
_cell_length_b   6.08443509
_cell_length_c   13.71094538
_cell_angle_alpha   90.00000000
_cell_angle_beta   90.00000000
_cell_angle_gamma   119.99783632
_symmetry_Int_Tables_number   1
_chemical_formula_structural   Ti8Al4C3O
_chemical_formula_sum   'Ti16 Al8 C6 O2'
_cell_volume   439.61897826
_cell_formula_units_Z   2
loop_
 _symmetry_equiv_pos_site_id
 _symmetry_equiv_pos_as_xyz
  1  'x, y, z'
loop_
 _atom_site_type_symbol
 _atom_site_label
 _atom_site_symmetry_multiplicity
 _atom_site_fract_x
 _atom_site_fract_y
 _atom_site_fract_z
 _atom_site_occupancy
  Ti  Ti0  1  0.16667646  0.33333824  0.08567981  1
  Ti  Ti1  1  0.33207306  0.16407913  0.58506460  1
  Ti  Ti2  1  0.33207306  0.16799391  0.91493540  1
  Ti  Ti3  1  0.16407142  0.33203572  0.41472601  1
  Ti  Ti4  1  0.16407142  0.83203571  0.08527399  1
  Ti  Ti5  1  0.33207306  0.66799392  0.58506460  1
  Ti  Ti6  1  0.33207306  0.66407914  0.91493540  1
  Ti  Ti7  1  0.16667646  0.83333823  0.41432019  1
  Ti  Ti8  1  0.66792695  0.33592087  0.08506460  1
  Ti  Ti9  1  0.83332353  0.16666176  0.58567981  1
  Ti  Ti10  1  0.83592857  0.16796428  0.91472601  1
  Ti  Ti11  1  0.66792695  0.33200609  0.41493540  1
  Ti  Ti12  1  0.66792695  0.83200608  0.08506460  1
  Ti  Ti13  1  0.83592857  0.66796429  0.58527399  1
  Ti  Ti14  1  0.83332353  0.66666177  0.91432019  1
  Ti  Ti15  1  0.66792695  0.83592086  0.41493540  1
  Al  Al16  1  0.16744821  0.33372411  0.75032364  1
  Al  Al17  1  0.33413859  0.16706930  0.25000000  1
  Al  Al18  1  0.16744821  0.83372410  0.74967636  1
  Al  Al19  1  0.33413859  0.66706931  0.25000000  1
  Al  Al20  1  0.66586142  0.33293070  0.75000000  1
  Al  Al21  1  0.83255178  0.16627589  0.25032364  1
  Al  Al22  1  0.66586142  0.83293069  0.75000000  1
  Al  Al23  1  0.83255178  0.66627590  0.24967636  1
  C  C24  1  -0.00000000  0.00000000  0.00000000  1
  C  C25  1  -0.00000000  0.00000000  0.50000000  1
  C  C26  1  -0.00000000  0.50000000  0.00000000  1
  C  C27  1  -0.00000000  0.50000000  0.50000000  1
  C  C28  1  0.50000000  0.00000000  0.50000000  1
  C  C29  1  0.50000000  0.50000000  0.00000000  1
  O  O30  1  0.50000000  0.00000000  0.00000000  1
  O  O31  1  0.50000000  0.50000000  0.50000000  1
