# generated using pymatgen
data_Ti8Al4C3O
_symmetry_space_group_name_H-M   'P 1'
_cell_length_a   6.12889602
_cell_length_b   6.12841329
_cell_length_c   13.80042663
_cell_angle_alpha   90.00000000
_cell_angle_beta   90.00000000
_cell_angle_gamma   119.99739449
_symmetry_Int_Tables_number   1
_chemical_formula_structural   Ti8Al4C3O
_chemical_formula_sum   'Ti16 Al8 C6 O2'
_cell_volume   448.91575220
_cell_formula_units_Z   2
loop_
 _symmetry_equiv_pos_site_id
 _symmetry_equiv_pos_as_xyz
  1  'x, y, z'
loop_
 _atom_site_type_symbol
 _atom_site_label
 _atom_site_symmetry_multiplicity
 _atom_site_fract_x
 _atom_site_fract_y
 _atom_site_fract_z
 _atom_site_occupancy
  Ti  Ti0  1  0.16667544  0.33333773  0.08502816  1
  Ti  Ti1  1  0.33188715  0.16368801  0.58440012  1
  Ti  Ti2  1  0.33188715  0.16819912  0.91559988  1
  Ti  Ti3  1  0.16362285  0.33181143  0.41537335  1
  Ti  Ti4  1  0.16362285  0.83181142  0.08462665  1
  Ti  Ti5  1  0.33188715  0.66819913  0.58440012  1
  Ti  Ti6  1  0.33188715  0.66368802  0.91559988  1
  Ti  Ti7  1  0.16667544  0.83333772  0.41497184  1
  Ti  Ti8  1  0.66811286  0.33631199  0.08440012  1
  Ti  Ti9  1  0.83332455  0.16666227  0.58502816  1
  Ti  Ti10  1  0.83637714  0.16818857  0.91537335  1
  Ti  Ti11  1  0.66811286  0.33180088  0.41559988  1
  Ti  Ti12  1  0.66811286  0.83180087  0.08440012  1
  Ti  Ti13  1  0.83637714  0.66818858  0.58462665  1
  Ti  Ti14  1  0.83332455  0.66666228  0.91497184  1
  Ti  Ti15  1  0.66811286  0.83631198  0.41559988  1
  Al  Al16  1  0.16762041  0.33381021  0.75036220  1
  Al  Al17  1  0.33432074  0.16716037  0.25000000  1
  Al  Al18  1  0.16762041  0.83381020  0.74963780  1
  Al  Al19  1  0.33432074  0.66716038  0.25000000  1
  Al  Al20  1  0.66567927  0.33283963  0.75000000  1
  Al  Al21  1  0.83237958  0.16618979  0.25036220  1
  Al  Al22  1  0.66567927  0.83283962  0.75000000  1
  Al  Al23  1  0.83237958  0.66618980  0.24963780  1
  C  C24  1  0.00000000  0.00000000  -0.00000000  1
  C  C25  1  0.00000000  0.00000000  0.50000000  1
  C  C26  1  0.00000000  0.50000000  -0.00000000  1
  C  C27  1  0.00000000  0.50000000  0.50000000  1
  C  C28  1  0.50000000  0.00000000  0.50000000  1
  C  C29  1  0.50000000  0.50000000  -0.00000000  1
  O  O30  1  0.50000000  0.00000000  -0.00000000  1
  O  O31  1  0.50000000  0.50000000  0.50000000  1
