# generated using pymatgen
data_Ti8Al4C3O
_symmetry_space_group_name_H-M   'P 1'
_cell_length_a   6.01166263
_cell_length_b   6.01147923
_cell_length_c   13.46468436
_cell_angle_alpha   90.00000000
_cell_angle_beta   90.00000000
_cell_angle_gamma   119.99899084
_symmetry_Int_Tables_number   1
_chemical_formula_structural   Ti8Al4C3O
_chemical_formula_sum   'Ti16 Al8 C6 O2'
_cell_volume   421.41226998
_cell_formula_units_Z   2
loop_
 _symmetry_equiv_pos_site_id
 _symmetry_equiv_pos_as_xyz
  1  'x, y, z'
loop_
 _atom_site_type_symbol
 _atom_site_label
 _atom_site_symmetry_multiplicity
 _atom_site_fract_x
 _atom_site_fract_y
 _atom_site_fract_z
 _atom_site_occupancy
  Ti  Ti0  1  0.16667355  0.33333679  0.08693786  1
  Ti  Ti1  1  0.33237694  0.16468705  0.58629740  1
  Ti  Ti2  1  0.33237694  0.16768987  0.91370260  1
  Ti  Ti3  1  0.16471023  0.33235513  0.41343810  1
  Ti  Ti4  1  0.16471023  0.83235512  0.08656190  1
  Ti  Ti5  1  0.33237694  0.66768988  0.58629740  1
  Ti  Ti6  1  0.33237694  0.66468706  0.91370260  1
  Ti  Ti7  1  0.16667355  0.83333678  0.41306214  1
  Ti  Ti8  1  0.66762307  0.33531295  0.08629740  1
  Ti  Ti9  1  0.83332644  0.16666321  0.58693786  1
  Ti  Ti10  1  0.83528976  0.16764487  0.91343810  1
  Ti  Ti11  1  0.66762307  0.33231013  0.41370260  1
  Ti  Ti12  1  0.66762307  0.83231012  0.08629740  1
  Ti  Ti13  1  0.83528976  0.66764488  0.58656190  1
  Ti  Ti14  1  0.83332644  0.66666322  0.91306214  1
  Ti  Ti15  1  0.66762307  0.83531294  0.41370260  1
  Al  Al16  1  0.16759895  0.33379948  0.75036437  1
  Al  Al17  1  0.33429079  0.16714539  0.25000000  1
  Al  Al18  1  0.16759895  0.83379947  0.74963563  1
  Al  Al19  1  0.33429079  0.66714540  0.25000000  1
  Al  Al20  1  0.66570922  0.33285461  0.75000000  1
  Al  Al21  1  0.83240104  0.16620052  0.25036437  1
  Al  Al22  1  0.66570922  0.83285460  0.75000000  1
  Al  Al23  1  0.83240104  0.66620053  0.24963563  1
  C  C24  1  0.00000000  0.00000000  0.00000000  1
  C  C25  1  0.00000000  0.00000000  0.50000000  1
  C  C26  1  0.00000000  0.50000000  0.00000000  1
  C  C27  1  0.00000000  0.50000000  0.50000000  1
  C  C28  1  0.50000000  0.00000000  0.50000000  1
  C  C29  1  0.50000000  0.50000000  0.00000000  1
  O  O30  1  0.50000000  0.00000000  0.00000000  1
  O  O31  1  0.50000000  0.50000000  0.50000000  1
