# generated using pymatgen
data_Ti8Al4C3O
_symmetry_space_group_name_H-M   'P 1'
_cell_length_a   6.05506009
_cell_length_b   6.05487425
_cell_length_c   13.55705997
_cell_angle_alpha   90.00000000
_cell_angle_beta   90.00000000
_cell_angle_gamma   119.99898476
_symmetry_Int_Tables_number   1
_chemical_formula_structural   Ti8Al4C3O
_chemical_formula_sum   'Ti16 Al8 C6 O2'
_cell_volume   430.45145194
_cell_formula_units_Z   2
loop_
 _symmetry_equiv_pos_site_id
 _symmetry_equiv_pos_as_xyz
  1  'x, y, z'
loop_
 _atom_site_type_symbol
 _atom_site_label
 _atom_site_symmetry_multiplicity
 _atom_site_fract_x
 _atom_site_fract_y
 _atom_site_fract_z
 _atom_site_occupancy
  Ti  Ti0  1  0.16668256  0.33334129  0.08632495  1
  Ti  Ti1  1  0.33222680  0.16437845  0.58572527  1
  Ti  Ti2  1  0.33222680  0.16784832  0.91427473  1
  Ti  Ti3  1  0.16439698  0.33219850  0.41402622  1
  Ti  Ti4  1  0.16439698  0.83219849  0.08597378  1
  Ti  Ti5  1  0.33222680  0.66784833  0.58572527  1
  Ti  Ti6  1  0.33222680  0.66437846  0.91427473  1
  Ti  Ti7  1  0.16668256  0.83334128  0.41367505  1
  Ti  Ti8  1  0.66777321  0.33562155  0.08572527  1
  Ti  Ti9  1  0.83331743  0.16665871  0.58632495  1
  Ti  Ti10  1  0.83560301  0.16780150  0.91402622  1
  Ti  Ti11  1  0.66777321  0.33215168  0.41427473  1
  Ti  Ti12  1  0.66777321  0.83215167  0.08572527  1
  Ti  Ti13  1  0.83560301  0.66780151  0.58597378  1
  Ti  Ti14  1  0.83331743  0.66665872  0.91367505  1
  Ti  Ti15  1  0.66777321  0.83562154  0.41427473  1
  Al  Al16  1  0.16760699  0.33380350  0.75035516  1
  Al  Al17  1  0.33429929  0.16714965  0.25000000  1
  Al  Al18  1  0.16760699  0.83380349  0.74964484  1
  Al  Al19  1  0.33429929  0.66714966  0.25000000  1
  Al  Al20  1  0.66570072  0.33285035  0.75000000  1
  Al  Al21  1  0.83239300  0.16619650  0.25035516  1
  Al  Al22  1  0.66570072  0.83285034  0.75000000  1
  Al  Al23  1  0.83239300  0.66619651  0.24964484  1
  C  C24  1  0.00000000  0.00000000  0.00000000  1
  C  C25  1  0.00000000  0.00000000  0.50000000  1
  C  C26  1  0.00000000  0.50000000  0.00000000  1
  C  C27  1  0.00000000  0.50000000  0.50000000  1
  C  C28  1  0.50000000  0.00000000  0.50000000  1
  C  C29  1  0.50000000  0.50000000  0.00000000  1
  O  O30  1  0.50000000  0.00000000  0.00000000  1
  O  O31  1  0.50000000  0.50000000  0.50000000  1
