# generated using pymatgen
data_Ti6Al2CO3
_symmetry_space_group_name_H-M   'P 1'
_cell_length_a   5.94663038
_cell_length_b   5.95831213
_cell_length_c   18.67479951
_cell_angle_alpha   90.06295385
_cell_angle_beta   90.00000000
_cell_angle_gamma   119.93516571
_symmetry_Int_Tables_number   1
_chemical_formula_structural   Ti6Al2CO3
_chemical_formula_sum   'Ti24 Al8 C4 O12'
_cell_volume   573.40805001
_cell_formula_units_Z   4
loop_
 _symmetry_equiv_pos_site_id
 _symmetry_equiv_pos_as_xyz
  1  'x, y, z'
loop_
 _atom_site_type_symbol
 _atom_site_label
 _atom_site_symmetry_multiplicity
 _atom_site_fract_x
 _atom_site_fract_y
 _atom_site_fract_z
 _atom_site_occupancy
  Ti  Ti0  1  0.16866469  0.33264314  0.86679845  1
  Ti  Ti1  1  0.33330864  0.16661726  0.36862174  1
  Ti  Ti2  1  0.33250661  0.16501319  0.13185183  1
  Ti  Ti3  1  0.16511132  0.33203848  0.63464548  1
  Ti  Ti4  1  0.01660219  0.01821537  0.99988288  1
  Ti  Ti5  1  0.00947816  0.98666346  0.49797631  1
  Ti  Ti6  1  0.16874345  0.83748692  0.86739391  1
  Ti  Ti7  1  0.33326755  0.66503858  0.36876451  1
  Ti  Ti8  1  0.33120883  0.66285660  0.13280072  1
  Ti  Ti9  1  0.16673416  0.83346832  0.63325097  1
  Ti  Ti10  1  0.99422453  0.48844905  0.00620527  1
  Ti  Ti11  1  0.01080033  0.52160065  0.49771871  1
  Ti  Ti12  1  0.66397843  0.33264314  0.86679845  1
  Ti  Ti13  1  0.83327440  0.16654879  0.36509506  1
  Ti  Ti14  1  0.83300069  0.16600139  0.13219561  1
  Ti  Ti15  1  0.66692715  0.33203848  0.63464548  1
  Ti  Ti16  1  0.50161317  0.01821537  0.99988288  1
  Ti  Ti17  1  0.47718530  0.98666346  0.49797631  1
  Ti  Ti18  1  0.66630664  0.83261326  0.86480324  1
  Ti  Ti19  1  0.83177103  0.66503858  0.36876451  1
  Ti  Ti20  1  0.83164777  0.66285660  0.13280072  1
  Ti  Ti21  1  0.66726823  0.83453643  0.63472754  1
  Ti  Ti22  1  0.49343158  0.48686316  0.00201682  1
  Ti  Ti23  1  0.50199191  0.50398383  0.49435282  1
  Al  Al24  1  0.99909513  0.99696650  0.25047739  1
  Al  Al25  1  0.00068323  0.00030009  0.75015780  1
  Al  Al26  1  0.00037506  0.50075011  0.25020510  1
  Al  Al27  1  0.00121841  0.50243682  0.75000329  1
  Al  Al28  1  0.49787136  0.99696650  0.25047739  1
  Al  Al29  1  0.49961685  0.00030009  0.75015780  1
  Al  Al30  1  0.49959056  0.49918112  0.24966607  1
  Al  Al31  1  0.50015896  0.50031791  0.74979476  1
  O  O32  1  0.15506878  0.32636703  0.43532268  1
  O  O33  1  0.33767577  0.17535153  0.56518504  1
  O  O34  1  0.33273237  0.66897159  0.93476548  1
  O  O35  1  0.33653311  0.66158716  0.56602711  1
  O  O36  1  0.16633645  0.83267293  0.06557771  1
  O  O37  1  0.67129824  0.32636703  0.43532268  1
  O  O38  1  0.83460806  0.16921612  0.93429961  1
  O  O39  1  0.83315962  0.16631925  0.56307103  1
  O  O40  1  0.67338383  0.84676765  0.43441717  1
  O  O41  1  0.83623923  0.66897159  0.93476548  1
  O  O42  1  0.82505405  0.66158716  0.56602711  1
  O  O43  1  0.66685366  0.83370732  0.06589521  1
  C  C44  1  0.33459411  0.16918821  0.93166460  1
  C  C45  1  0.16665417  0.33233698  0.06923873  1
  C  C46  1  0.16646942  0.83293886  0.42827184  1
  C  C47  1  0.66568280  0.33233698  0.06923873  1
