# generated using pymatgen
data_Ti6Al2CO3
_symmetry_space_group_name_H-M   'P 1'
_cell_length_a   6.06033431
_cell_length_b   6.07111561
_cell_length_c   19.09380498
_cell_angle_alpha   90.07690323
_cell_angle_beta   90.00000000
_cell_angle_gamma   119.94127330
_symmetry_Int_Tables_number   1
_chemical_formula_structural   Ti6Al2CO3
_chemical_formula_sum   'Ti24 Al8 C4 O12'
_cell_volume   608.75757160
_cell_formula_units_Z   4
loop_
 _symmetry_equiv_pos_site_id
 _symmetry_equiv_pos_as_xyz
  1  'x, y, z'
loop_
 _atom_site_type_symbol
 _atom_site_label
 _atom_site_symmetry_multiplicity
 _atom_site_fract_x
 _atom_site_fract_y
 _atom_site_fract_z
 _atom_site_occupancy
  Ti  Ti0  1  0.16973237  0.33202378  0.86833877  1
  Ti  Ti1  1  0.33293789  0.16587594  0.37025382  1
  Ti  Ti2  1  0.33295248  0.16590507  0.13010243  1
  Ti  Ti3  1  0.16506190  0.33189150  0.63346809  1
  Ti  Ti4  1  0.01915593  0.02082695  0.99969622  1
  Ti  Ti5  1  0.01054977  0.98571951  0.49767664  1
  Ti  Ti6  1  0.16954098  0.83908233  0.86894187  1
  Ti  Ti7  1  0.33280244  0.66542095  0.37028633  1
  Ti  Ti8  1  0.33037838  0.66114306  0.13145324  1
  Ti  Ti9  1  0.16665363  0.83330697  0.63232993  1
  Ti  Ti10  1  0.99361180  0.48722345  0.00707089  1
  Ti  Ti11  1  0.01175276  0.52350604  0.49736888  1
  Ti  Ti12  1  0.66229084  0.33202333  0.86833875  1
  Ti  Ti13  1  0.83319710  0.16639442  0.36650308  1
  Ti  Ti14  1  0.83332567  0.16665138  0.13042118  1
  Ti  Ti15  1  0.66682960  0.33189151  0.63346812  1
  Ti  Ti16  1  0.50167128  0.02082656  0.99969626  1
  Ti  Ti17  1  0.47516935  0.98571902  0.49767670  1
  Ti  Ti18  1  0.66607096  0.83214197  0.86579550  1
  Ti  Ti19  1  0.83261844  0.66542118  0.37028629  1
  Ti  Ti20  1  0.83076473  0.66114300  0.13145330  1
  Ti  Ti21  1  0.66721330  0.83442664  0.63363661  1
  Ti  Ti22  1  0.49252720  0.48505361  0.00219614  1
  Ti  Ti23  1  0.50187354  0.50374727  0.49372541  1
  Al  Al24  1  0.99885235  0.99710944  0.25051004  1
  Al  Al25  1  0.00057413  0.00047647  0.75014926  1
  Al  Al26  1  0.00017344  0.50034735  0.25027419  1
  Al  Al27  1  0.00101639  0.50203321  0.75003992  1
  Al  Al28  1  0.49825731  0.99710979  0.25051004  1
  Al  Al29  1  0.49990245  0.00047673  0.75014929  1
  Al  Al30  1  0.49959726  0.49919395  0.24961167  1
  Al  Al31  1  0.50007452  0.50014855  0.74966393  1
  O  O32  1  0.15489882  0.32636178  0.43630942  1
  O  O33  1  0.33741149  0.17482279  0.56407123  1
  O  O34  1  0.33253472  0.66938054  0.93535255  1
  O  O35  1  0.33651353  0.66163613  0.56483579  1
  O  O36  1  0.16625853  0.83251820  0.06476663  1
  O  O37  1  0.67146275  0.32636168  0.43630943  1
  O  O38  1  0.83504874  0.17009697  0.93529670  1
  O  O39  1  0.83306518  0.16613056  0.56245799  1
  O  O40  1  0.67349105  0.84698223  0.43547651  1
  O  O41  1  0.83684600  0.66938084  0.93535258  1
  O  O42  1  0.82512267  0.66163625  0.56483578  1
  O  O43  1  0.66673972  0.83347839  0.06545008  1
  C  C44  1  0.33480518  0.16961000  0.93228846  1
  C  C45  1  0.16666973  0.33223508  0.06862859  1
  C  C46  1  0.16643635  0.83287310  0.42884696  1
  C  C47  1  0.66556533  0.33223456  0.06862855  1
