# generated using pymatgen
data_Ti6Al2CO3
_symmetry_space_group_name_H-M   'P 1'
_cell_length_a   5.98982378
_cell_length_b   6.00109491
_cell_length_c   18.80051999
_cell_angle_alpha   90.07245003
_cell_angle_beta   90.00000000
_cell_angle_gamma   119.93788975
_symmetry_Int_Tables_number   1
_chemical_formula_structural   Ti6Al2CO3
_chemical_formula_sum   'Ti24 Al8 C4 O12'
_cell_volume   585.62018983
_cell_formula_units_Z   4
loop_
 _symmetry_equiv_pos_site_id
 _symmetry_equiv_pos_as_xyz
  1  'x, y, z'
loop_
 _atom_site_type_symbol
 _atom_site_label
 _atom_site_symmetry_multiplicity
 _atom_site_fract_x
 _atom_site_fract_y
 _atom_site_fract_z
 _atom_site_occupancy
  Ti  Ti0  1  0.16919764  0.33249136  0.86731296  1
  Ti  Ti1  1  0.33321108  0.16642214  0.36915146  1
  Ti  Ti2  1  0.33265136  0.16530270  0.13124164  1
  Ti  Ti3  1  0.16518980  0.33202873  0.63426694  1
  Ti  Ti4  1  0.01735188  0.01897020  0.99982674  1
  Ti  Ti5  1  0.00994172  0.98645966  0.49788774  1
  Ti  Ti6  1  0.16901193  0.83802387  0.86788413  1
  Ti  Ti7  1  0.33314067  0.66520306  0.36926785  1
  Ti  Ti8  1  0.33086381  0.66227928  0.13229639  1
  Ti  Ti9  1  0.16675760  0.83351521  0.63303063  1
  Ti  Ti10  1  0.99393716  0.48787432  0.00646233  1
  Ti  Ti11  1  0.01120014  0.52240028  0.49762111  1
  Ti  Ti12  1  0.66329370  0.33249136  0.86731296  1
  Ti  Ti13  1  0.83325492  0.16650983  0.36556114  1
  Ti  Ti14  1  0.83307091  0.16614182  0.13159860  1
  Ti  Ti15  1  0.66683892  0.33202873  0.63426694  1
  Ti  Ti16  1  0.50161831  0.01897020  0.99982674  1
  Ti  Ti17  1  0.47651794  0.98645966  0.49788774  1
  Ti  Ti18  1  0.66624739  0.83249477  0.86517105  1
  Ti  Ti19  1  0.83206239  0.66520306  0.36926785  1
  Ti  Ti20  1  0.83141547  0.66227928  0.13229639  1
  Ti  Ti21  1  0.66722988  0.83445974  0.63436061  1
  Ti  Ti22  1  0.49308502  0.48617004  0.00206490  1
  Ti  Ti23  1  0.50200951  0.50401902  0.49410161  1
  Al  Al24  1  0.99907946  0.99703495  0.25043485  1
  Al  Al25  1  0.00031951  0.00022206  0.75019690  1
  Al  Al26  1  0.00035084  0.50070167  0.25019321  1
  Al  Al27  1  0.00103202  0.50206404  0.75006715  1
  Al  Al28  1  0.49795549  0.99703495  0.25043485  1
  Al  Al29  1  0.49990254  0.00022206  0.75019690  1
  Al  Al30  1  0.49966713  0.49933426  0.24960731  1
  Al  Al31  1  0.50010434  0.50020867  0.74976728  1
  O  O32  1  0.15501959  0.32643647  0.43565914  1
  O  O33  1  0.33762516  0.17525030  0.56484601  1
  O  O34  1  0.33265078  0.66905896  0.93495700  1
  O  O35  1  0.33655468  0.66175692  0.56567434  1
  O  O36  1  0.16628638  0.83257278  0.06527808  1
  O  O37  1  0.67141687  0.32643647  0.43565914  1
  O  O38  1  0.83474707  0.16949414  0.93460648  1
  O  O39  1  0.83313925  0.16627850  0.56291710  1
  O  O40  1  0.67347347  0.84694693  0.43477464  1
  O  O41  1  0.83640818  0.66905896  0.93495700  1
  O  O42  1  0.82520224  0.66175692  0.56567434  1
  O  O43  1  0.66677227  0.83354453  0.06576715  1
  C  C44  1  0.33459410  0.16918818  0.93186215  1
  C  C45  1  0.16655099  0.33212846  0.06900174  1
  C  C46  1  0.16647103  0.83294208  0.42849906  1
  C  C47  1  0.66557746  0.33212846  0.06900174  1
