# generated using pymatgen
data_Ti6Al2CO3
_symmetry_space_group_name_H-M   'P 1'
_cell_length_a   6.17484767
_cell_length_b   6.18823637
_cell_length_c   19.43657893
_cell_angle_alpha   90.11245175
_cell_angle_beta   90.00000000
_cell_angle_gamma   119.92845530
_symmetry_Int_Tables_number   1
_chemical_formula_structural   Ti6Al2CO3
_chemical_formula_sum   'Ti24 Al8 C4 O12'
_cell_volume   643.65794185
_cell_formula_units_Z   4
loop_
 _symmetry_equiv_pos_site_id
 _symmetry_equiv_pos_as_xyz
  1  'x, y, z'
loop_
 _atom_site_type_symbol
 _atom_site_label
 _atom_site_symmetry_multiplicity
 _atom_site_fract_x
 _atom_site_fract_y
 _atom_site_fract_z
 _atom_site_occupancy
  Ti  Ti0  1  0.17138788  0.33194631  0.86987634  1
  Ti  Ti1  1  0.33241834  0.16483585  0.37193798  1
  Ti  Ti2  1  0.33331255  0.16662597  0.12835748  1
  Ti  Ti3  1  0.16491230  0.33174276  0.63228310  1
  Ti  Ti4  1  0.02209014  0.02385412  0.99938279  1
  Ti  Ti5  1  0.01203554  0.98511645  0.49749637  1
  Ti  Ti6  1  0.17057357  0.84114471  0.87050777  1
  Ti  Ti7  1  0.33218403  0.66561120  0.37185423  1
  Ti  Ti8  1  0.32946535  0.65905200  0.13006852  1
  Ti  Ti9  1  0.16659260  0.83318383  0.63134670  1
  Ti  Ti10  1  0.99288994  0.48577951  0.00803968  1
  Ti  Ti11  1  0.01284308  0.52568687  0.49710221  1
  Ti  Ti12  1  0.66055891  0.33194549  0.86987617  1
  Ti  Ti13  1  0.83294311  0.16588717  0.36799829  1
  Ti  Ti14  1  0.83347775  0.16695550  0.12869339  1
  Ti  Ti15  1  0.66683015  0.33174286  0.63228322  1
  Ti  Ti16  1  0.50176987  0.02385597  0.99938288  1
  Ti  Ti17  1  0.47307830  0.98511503  0.49749655  1
  Ti  Ti18  1  0.66573863  0.83147892  0.86679913  1
  Ti  Ti19  1  0.83342712  0.66561025  0.37185418  1
  Ti  Ti20  1  0.82958542  0.65905028  0.13006859  1
  Ti  Ti21  1  0.66717918  0.83435969  0.63249963  1
  Ti  Ti22  1  0.49153930  0.48307846  0.00243137  1
  Ti  Ti23  1  0.50131280  0.50262509  0.49265161  1
  Al  Al24  1  0.99839266  0.99697318  0.25071449  1
  Al  Al25  1  0.00051698  0.00065060  0.75010922  1
  Al  Al26  1  0.99980395  0.49960990  0.25040362  1
  Al  Al27  1  0.00096107  0.50192235  0.74993094  1
  Al  Al28  1  0.49858066  0.99697427  0.25071423  1
  Al  Al29  1  0.50013316  0.00065045  0.75010913  1
  Al  Al30  1  0.49955492  0.49910873  0.24948852  1
  Al  Al31  1  0.50002641  0.50005342  0.74946963  1
  O  O32  1  0.15423732  0.32607586  0.43729497  1
  O  O33  1  0.33721093  0.17442200  0.56298276  1
  O  O34  1  0.33243442  0.67019219  0.93575964  1
  O  O35  1  0.33672849  0.66200169  0.56341947  1
  O  O36  1  0.16615596  0.83230814  0.06389436  1
  O  O37  1  0.67183802  0.32607540  0.43729510  1
  O  O38  1  0.83576107  0.17152429  0.93629217  1
  O  O39  1  0.83298188  0.16596488  0.56219317  1
  O  O40  1  0.67344378  0.84688856  0.43679373  1
  O  O41  1  0.83775730  0.67019081  0.93575938  1
  O  O42  1  0.82527314  0.66200190  0.56341953  1
  O  O43  1  0.66656052  0.83312369  0.06522275  1
  C  C44  1  0.33519898  0.17039686  0.93277225  1
  C  C45  1  0.16658844  0.33193619  0.06812215  1
  C  C46  1  0.16636594  0.83273308  0.42942825  1
  C  C47  1  0.66534814  0.33193731  0.06812238  1
