# generated using pymatgen
data_Ti6Al2CO3
_symmetry_space_group_name_H-M   'P 1'
_cell_length_a   6.10359137
_cell_length_b   6.11554202
_cell_length_c   19.21248830
_cell_angle_alpha   90.07744723
_cell_angle_beta   90.00000000
_cell_angle_gamma   119.93537851
_symmetry_Int_Tables_number   1
_chemical_formula_structural   Ti6Al2CO3
_chemical_formula_sum   'Ti24 Al8 C4 O12'
_cell_volume   621.46482905
_cell_formula_units_Z   4
loop_
 _symmetry_equiv_pos_site_id
 _symmetry_equiv_pos_as_xyz
  1  'x, y, z'
loop_
 _atom_site_type_symbol
 _atom_site_label
 _atom_site_symmetry_multiplicity
 _atom_site_fract_x
 _atom_site_fract_y
 _atom_site_fract_z
 _atom_site_occupancy
  Ti  Ti0  1  0.17032302  0.33206063  0.86886126  1
  Ti  Ti1  1  0.33276170  0.16552307  0.37087058  1
  Ti  Ti2  1  0.33308183  0.16616363  0.12952001  1
  Ti  Ti3  1  0.16497981  0.33181374  0.63300606  1
  Ti  Ti4  1  0.02025928  0.02201542  0.99960369  1
  Ti  Ti5  1  0.01118577  0.98551691  0.49765078  1
  Ti  Ti6  1  0.16994726  0.83989396  0.86948115  1
  Ti  Ti7  1  0.33258882  0.66543605  0.37086686  1
  Ti  Ti8  1  0.33004851  0.66042022  0.13099195  1
  Ti  Ti9  1  0.16661297  0.83322535  0.63189356  1
  Ti  Ti10  1  0.99337656  0.48675323  0.00742649  1
  Ti  Ti11  1  0.01212318  0.52424566  0.49732855  1
  Ti  Ti12  1  0.66173774  0.33206004  0.86886118  1
  Ti  Ti13  1  0.83307432  0.16614893  0.36706604  1
  Ti  Ti14  1  0.83339131  0.16678272  0.12983879  1
  Ti  Ti15  1  0.66683376  0.33181354  0.63300591  1
  Ti  Ti16  1  0.50175614  0.02201530  0.99960349  1
  Ti  Ti17  1  0.47433062  0.98551647  0.49765096  1
  Ti  Ti18  1  0.66599174  0.83198295  0.86613560  1
  Ti  Ti19  1  0.83284683  0.66543570  0.37086683  1
  Ti  Ti20  1  0.83037171  0.66042037  0.13099193  1
  Ti  Ti21  1  0.66718629  0.83437321  0.63319368  1
  Ti  Ti22  1  0.49219866  0.48439751  0.00228446  1
  Ti  Ti23  1  0.50152991  0.50305863  0.49320867  1
  Al  Al24  1  0.99866522  0.99703894  0.25061540  1
  Al  Al25  1  0.00054959  0.00054960  0.75009603  1
  Al  Al26  1  0.00001966  0.50003869  0.25035799  1
  Al  Al27  1  0.00100396  0.50200853  0.74996764  1
  Al  Al28  1  0.49837352  0.99703852  0.25061530  1
  Al  Al29  1  0.50000021  0.00055000  0.75009597  1
  Al  Al30  1  0.49955185  0.49910443  0.24960509  1
  Al  Al31  1  0.50006223  0.50012384  0.74956152  1
  O  O32  1  0.15445327  0.32613113  0.43667281  1
  O  O33  1  0.33745381  0.17490757  0.56367805  1
  O  O34  1  0.33253571  0.66974744  0.93552766  1
  O  O35  1  0.33678823  0.66158911  0.56427831  1
  O  O36  1  0.16623954  0.83247927  0.06446865  1
  O  O37  1  0.67167794  0.32613078  0.43667295  1
  O  O38  1  0.83533045  0.17066085  0.93563801  1
  O  O39  1  0.83299904  0.16599847  0.56230645  1
  O  O40  1  0.67349315  0.84698685  0.43601453  1
  O  O41  1  0.83721172  0.66974747  0.93552761  1
  O  O42  1  0.82480125  0.66158921  0.56427836  1
  O  O43  1  0.66670535  0.83341078  0.06534156  1
  C  C44  1  0.33498276  0.16996585  0.93244717  1
  C  C45  1  0.16669142  0.33219459  0.06847797  1
  C  C46  1  0.16636935  0.83274034  0.42906858  1
  C  C47  1  0.66550301  0.33219456  0.06847791  1
