# generated using pymatgen
data_Ti6Al2CO3
_symmetry_space_group_name_H-M   'P 1'
_cell_length_a   6.03657262
_cell_length_b   6.03809039
_cell_length_c   18.94294149
_cell_angle_alpha   90.01436592
_cell_angle_beta   90.00000000
_cell_angle_gamma   119.99168522
_symmetry_Int_Tables_number   1
_chemical_formula_structural   Ti6Al2CO3
_chemical_formula_sum   'Ti24 Al8 C4 O12'
_cell_volume   598.00450079
_cell_formula_units_Z   4
loop_
 _symmetry_equiv_pos_site_id
 _symmetry_equiv_pos_as_xyz
  1  'x, y, z'
loop_
 _atom_site_type_symbol
 _atom_site_label
 _atom_site_symmetry_multiplicity
 _atom_site_fract_x
 _atom_site_fract_y
 _atom_site_fract_z
 _atom_site_occupancy
  Ti  Ti0  1  0.16986861  0.33274106  0.86785837  1
  Ti  Ti1  1  0.33298575  0.16597147  0.36967077  1
  Ti  Ti2  1  0.33280081  0.16560160  0.13065131  1
  Ti  Ti3  1  0.16544756  0.33286360  0.63387212  1
  Ti  Ti4  1  0.01847198  0.02017663  0.99974838  1
  Ti  Ti5  1  0.01173459  0.98759530  0.49753136  1
  Ti  Ti6  1  0.16946050  0.83892102  0.86850352  1
  Ti  Ti7  1  0.33214756  0.66469179  0.36972555  1
  Ti  Ti8  1  0.33063844  0.66183136  0.13182817  1
  Ti  Ti9  1  0.16676000  0.83352002  0.63261662  1
  Ti  Ti10  1  0.99381675  0.48763348  0.00685076  1
  Ti  Ti11  1  0.01149586  0.52299174  0.49775523  1
  Ti  Ti12  1  0.66287242  0.33274106  0.86785837  1
  Ti  Ti13  1  0.83248099  0.16496197  0.36600789  1
  Ti  Ti14  1  0.83322327  0.16644654  0.13108206  1
  Ti  Ti15  1  0.66741603  0.33286360  0.63387212  1
  Ti  Ti16  1  0.50170464  0.02017663  0.99974838  1
  Ti  Ti17  1  0.47586072  0.98759530  0.49753136  1
  Ti  Ti18  1  0.66641934  0.83283865  0.86547757  1
  Ti  Ti19  1  0.83254423  0.66469179  0.36972555  1
  Ti  Ti20  1  0.83119291  0.66183136  0.13182817  1
  Ti  Ti21  1  0.66734571  0.83469141  0.63406347  1
  Ti  Ti22  1  0.49299359  0.48598718  0.00217060  1
  Ti  Ti23  1  0.49913592  0.49827184  0.49399904  1
  Al  Al24  1  0.99920716  0.99688758  0.25046007  1
  Al  Al25  1  0.00101093  0.00056257  0.75012453  1
  Al  Al26  1  0.00006727  0.50013455  0.25030410  1
  Al  Al27  1  0.00123476  0.50246952  0.75010851  1
  Al  Al28  1  0.49768042  0.99688758  0.25046007  1
  Al  Al29  1  0.49955163  0.00056257  0.75012453  1
  Al  Al30  1  0.49986218  0.49972436  0.24967494  1
  Al  Al31  1  0.50020446  0.50040891  0.74979884  1
  O  O32  1  0.15363387  0.32614342  0.43560048  1
  O  O33  1  0.33694893  0.17389782  0.56506432  1
  O  O34  1  0.33274668  0.66958260  0.93514084  1
  O  O35  1  0.33787244  0.66292120  0.56493666  1
  O  O36  1  0.16635647  0.83271297  0.06503611  1
  O  O37  1  0.67250955  0.32614342  0.43560048  1
  O  O38  1  0.83506388  0.17012775  0.93498939  1
  O  O39  1  0.83308296  0.16616593  0.56276785  1
  O  O40  1  0.67192249  0.84384496  0.43566828  1
  O  O41  1  0.83683593  0.66958260  0.93514084  1
  O  O42  1  0.82504877  0.66292120  0.56493666  1
  O  O43  1  0.66686862  0.83373723  0.06564324  1
  C  C44  1  0.33493003  0.16986002  0.93208706  1
  C  C45  1  0.16673348  0.33239466  0.06886134  1
  C  C46  1  0.16614778  0.83229557  0.42863282  1
  C  C47  1  0.66566118  0.33239466  0.06886134  1
