# generated using pymatgen
data_Ti6Al2CO3
_symmetry_space_group_name_H-M   'P 1'
_cell_length_a   5.90341997
_cell_length_b   5.91479256
_cell_length_c   18.55219501
_cell_angle_alpha   90.05269402
_cell_angle_beta   90.00000000
_cell_angle_gamma   119.93641687
_symmetry_Int_Tables_number   1
_chemical_formula_structural   Ti6Al2CO3
_chemical_formula_sum   'Ti24 Al8 C4 O12'
_cell_volume   561.36687804
_cell_formula_units_Z   4
loop_
 _symmetry_equiv_pos_site_id
 _symmetry_equiv_pos_as_xyz
  1  'x, y, z'
loop_
 _atom_site_type_symbol
 _atom_site_label
 _atom_site_symmetry_multiplicity
 _atom_site_fract_x
 _atom_site_fract_y
 _atom_site_fract_z
 _atom_site_occupancy
  Ti  Ti0  1  0.16834069  0.33286914  0.86628875  1
  Ti  Ti1  1  0.33346226  0.16692450  0.36811493  1
  Ti  Ti2  1  0.33236435  0.16472869  0.13243047  1
  Ti  Ti3  1  0.16504909  0.33202736  0.63502925  1
  Ti  Ti4  1  0.01574660  0.01737675  0.99994787  1
  Ti  Ti5  1  0.00913916  0.98689790  0.49807265  1
  Ti  Ti6  1  0.16852882  0.83705766  0.86687906  1
  Ti  Ti7  1  0.33344297  0.66490706  0.36828750  1
  Ti  Ti8  1  0.33143430  0.66334508  0.13327585  1
  Ti  Ti9  1  0.16675090  0.83350181  0.63354709  1
  Ti  Ti10  1  0.99449229  0.48898457  0.00594115  1
  Ti  Ti11  1  0.01052483  0.52104966  0.49783460  1
  Ti  Ti12  1  0.66452844  0.33286914  0.86628875  1
  Ti  Ti13  1  0.83330741  0.16661481  0.36463438  1
  Ti  Ti14  1  0.83290255  0.16580510  0.13276696  1
  Ti  Ti15  1  0.66697826  0.33202736  0.63502925  1
  Ti  Ti16  1  0.50163015  0.01737675  0.99994787  1
  Ti  Ti17  1  0.47775874  0.98689790  0.49807265  1
  Ti  Ti18  1  0.66638392  0.83276783  0.86446239  1
  Ti  Ti19  1  0.83146410  0.66490706  0.36828750  1
  Ti  Ti20  1  0.83191078  0.66334508  0.13327585  1
  Ti  Ti21  1  0.66730107  0.83460213  0.63507802  1
  Ti  Ti22  1  0.49375044  0.48750088  0.00196722  1
  Ti  Ti23  1  0.50199782  0.50399564  0.49448128  1
  Al  Al24  1  0.99913929  0.99695649  0.25049222  1
  Al  Al25  1  0.00069098  0.00026680  0.75014249  1
  Al  Al26  1  0.00039458  0.50078915  0.25019516  1
  Al  Al27  1  0.00125403  0.50250806  0.74996173  1
  Al  Al28  1  0.49781721  0.99695649  0.25049222  1
  Al  Al29  1  0.49957581  0.00026680  0.75014249  1
  Al  Al30  1  0.49956739  0.49913478  0.24965687  1
  Al  Al31  1  0.50017778  0.50035556  0.74979864  1
  O  O32  1  0.15500805  0.32631964  0.43502398  1
  O  O33  1  0.33779728  0.17559455  0.56552146  1
  O  O34  1  0.33277060  0.66884996  0.93453603  1
  O  O35  1  0.33658305  0.66145891  0.56638293  1
  O  O36  1  0.16637688  0.83275378  0.06585885  1
  O  O37  1  0.67131158  0.32631964  0.43502398  1
  O  O38  1  0.83452934  0.16905869  0.93398597  1
  O  O39  1  0.83318660  0.16637319  0.56328673  1
  O  O40  1  0.67339545  0.84679089  0.43409836  1
  O  O41  1  0.83607936  0.66884996  0.93453603  1
  O  O42  1  0.82487586  0.66145891  0.56638293  1
  O  O43  1  0.66687874  0.83375747  0.06610669  1
  C  C44  1  0.33454127  0.16908251  0.93147741  1
  C  C45  1  0.16666195  0.33238240  0.06943518  1
  C  C46  1  0.16647655  0.83295313  0.42808524  1
  C  C47  1  0.66572043  0.33238240  0.06943518  1
