# generated using pymatgen
data_Ti6Al2CO3
_symmetry_space_group_name_H-M   'P 1'
_cell_length_a   6.13991064
_cell_length_b   6.15189685
_cell_length_c   19.32303324
_cell_angle_alpha   90.07566389
_cell_angle_beta   90.00000000
_cell_angle_gamma   119.93556915
_symmetry_Int_Tables_number   1
_chemical_formula_structural   Ti6Al2CO3
_chemical_formula_sum   'Ti24 Al8 C4 O12'
_cell_volume   632.49649388
_cell_formula_units_Z   4
loop_
 _symmetry_equiv_pos_site_id
 _symmetry_equiv_pos_as_xyz
  1  'x, y, z'
loop_
 _atom_site_type_symbol
 _atom_site_label
 _atom_site_symmetry_multiplicity
 _atom_site_fract_x
 _atom_site_fract_y
 _atom_site_fract_z
 _atom_site_occupancy
  Ti  Ti0  1  0.17085501  0.33211646  0.86932942  1
  Ti  Ti1  1  0.33248735  0.16497446  0.37134021  1
  Ti  Ti2  1  0.33314542  0.16628952  0.12897732  1
  Ti  Ti3  1  0.16505061  0.33189523  0.63271764  1
  Ti  Ti4  1  0.02119842  0.02289924  0.99949570  1
  Ti  Ti5  1  0.01170250  0.98543682  0.49755009  1
  Ti  Ti6  1  0.17024386  0.84048844  0.86998678  1
  Ti  Ti7  1  0.33222110  0.66553334  0.37129933  1
  Ti  Ti8  1  0.32982554  0.65982544  0.13052565  1
  Ti  Ti9  1  0.16655369  0.83310702  0.63164230  1
  Ti  Ti10  1  0.99310485  0.48621064  0.00775115  1
  Ti  Ti11  1  0.01235190  0.52470448  0.49721562  1
  Ti  Ti12  1  0.66126136  0.33211600  0.86932973  1
  Ti  Ti13  1  0.83293146  0.16586311  0.36746088  1
  Ti  Ti14  1  0.83339782  0.16679651  0.12931790  1
  Ti  Ti15  1  0.66684479  0.33189494  0.63271757  1
  Ti  Ti16  1  0.50170021  0.02289959  0.99949574  1
  Ti  Ti17  1  0.47373375  0.98543640  0.49755019  1
  Ti  Ti18  1  0.66594064  0.83188077  0.86646852  1
  Ti  Ti19  1  0.83331239  0.66553340  0.37129919  1
  Ti  Ti20  1  0.82999987  0.65982464  0.13052554  1
  Ti  Ti21  1  0.66716400  0.83432770  0.63294350  1
  Ti  Ti22  1  0.49194715  0.48389263  0.00234116  1
  Ti  Ti23  1  0.50135314  0.50270562  0.49306075  1
  Al  Al24  1  0.99855388  0.99693929  0.25067275  1
  Al  Al25  1  0.00064412  0.00063036  0.75012586  1
  Al  Al26  1  0.99992879  0.49985608  0.25037596  1
  Al  Al27  1  0.00104389  0.50208893  0.74997290  1
  Al  Al28  1  0.49838518  0.99693857  0.25067263  1
  Al  Al29  1  0.49998676  0.00063115  0.75012594  1
  Al  Al30  1  0.49954097  0.49908304  0.24957544  1
  Al  Al31  1  0.50003919  0.50007702  0.74957740  1
  O  O32  1  0.15441429  0.32610554  0.43687277  1
  O  O33  1  0.33724032  0.17448082  0.56333684  1
  O  O34  1  0.33259588  0.67005635  0.93566148  1
  O  O35  1  0.33675230  0.66194944  0.56383245  1
  O  O36  1  0.16621206  0.83242521  0.06415229  1
  O  O37  1  0.67169114  0.32610526  0.43687282  1
  O  O38  1  0.83549565  0.17099181  0.93597812  1
  O  O39  1  0.83294926  0.16589895  0.56232061  1
  O  O40  1  0.67338650  0.84677312  0.43632253  1
  O  O41  1  0.83746016  0.67005676  0.93566166  1
  O  O42  1  0.82519781  0.66195020  0.56383236  1
  O  O43  1  0.66667426  0.83334796  0.06526556  1
  C  C44  1  0.33513587  0.17027178  0.93260564  1
  C  C45  1  0.16663957  0.33202286  0.06830324  1
  C  C46  1  0.16632246  0.83264488  0.42923771  1
  C  C47  1  0.66538285  0.33202224  0.06830319  1
