# generated using pymatgen
data_Ti6Al2C3O
_symmetry_space_group_name_H-M   'P 1'
_cell_length_a   6.19861062
_cell_length_b   6.20018546
_cell_length_c   18.80408836
_cell_angle_alpha   90.00000001
_cell_angle_beta   90.04584558
_cell_angle_gamma   120.00840461
_symmetry_Int_Tables_number   1
_chemical_formula_structural   Ti6Al2C3O
_chemical_formula_sum   'Ti24 Al8 C12 O4'
_cell_volume   625.81357401
_cell_formula_units_Z   4
loop_
 _symmetry_equiv_pos_site_id
 _symmetry_equiv_pos_as_xyz
  1  'x, y, z'
loop_
 _atom_site_type_symbol
 _atom_site_label
 _atom_site_symmetry_multiplicity
 _atom_site_fract_x
 _atom_site_fract_y
 _atom_site_fract_z
 _atom_site_occupancy
  Ti  Ti0  1  0.17061864  0.33530933  0.87359445  1
  Ti  Ti1  1  0.33238417  0.16612031  0.37238286  1
  Ti  Ti2  1  0.33603295  0.17125699  0.12730854  1
  Ti  Ti3  1  0.16431828  0.33215914  0.62619134  1
  Ti  Ti4  1  0.00010495  0.00008112  0.00037420  1
  Ti  Ti5  1  0.00464822  0.00232417  0.50009369  1
  Ti  Ti6  1  0.16643593  0.83321796  0.87297859  1
  Ti  Ti7  1  0.33238417  0.66626385  0.37238286  1
  Ti  Ti8  1  0.33603295  0.66477595  0.12730854  1
  Ti  Ti9  1  0.16453794  0.83226898  0.62645796  1
  Ti  Ti10  1  0.00010495  0.50002384  0.00037420  1
  Ti  Ti11  1  0.00464822  0.50232404  0.50009369  1
  Ti  Ti12  1  0.66424971  0.33520653  0.87362770  1
  Ti  Ti13  1  0.84067833  0.17033916  0.37091631  1
  Ti  Ti14  1  0.83379754  0.16689876  0.12764587  1
  Ti  Ti15  1  0.66750077  0.33361848  0.62635562  1
  Ti  Ti16  1  0.49985131  0.99992565  0.00044085  1
  Ti  Ti17  1  0.49155917  0.99577959  0.50188359  1
  Ti  Ti18  1  0.66424971  0.82904317  0.87362770  1
  Ti  Ti19  1  0.84079156  0.67039578  0.37148090  1
  Ti  Ti20  1  0.82943400  0.66471701  0.12702532  1
  Ti  Ti21  1  0.66750077  0.83388230  0.62635562  1
  Ti  Ti22  1  0.49991283  0.49995641  0.00038922  1
  Ti  Ti23  1  0.49150030  0.49575014  0.50194399  1
  Al  Al24  1  0.00025471  0.99908070  0.25034416  1
  Al  Al25  1  0.99853747  0.00056327  0.75039296  1
  Al  Al26  1  0.00025471  0.50117401  0.25034416  1
  Al  Al27  1  0.99853747  0.49797420  0.75039296  1
  Al  Al28  1  0.49970951  0.99985475  0.25018665  1
  Al  Al29  1  0.50178124  0.00089063  0.75040452  1
  Al  Al30  1  0.50112746  0.50056374  0.25000224  1
  Al  Al31  1  0.50009254  0.50004627  0.75073317  1
  C  C32  1  0.16825957  0.33412980  0.43074253  1
  C  C33  1  0.33233723  0.16494593  0.93180964  1
  C  C34  1  0.33361883  0.16678048  0.56814050  1
  C  C35  1  0.16524621  0.33262311  0.06874130  1
  C  C36  1  0.16831664  0.83415833  0.43084535  1
  C  C37  1  0.33233723  0.66739129  0.93180964  1
  C  C38  1  0.33361883  0.66683834  0.56814050  1
  C  C39  1  0.83097471  0.16548735  0.56746092  1
  C  C40  1  0.66773373  0.33259865  0.06864815  1
  C  C41  1  0.83488632  0.66744317  0.93185340  1
  C  C42  1  0.83102629  0.66551315  0.56761038  1
  C  C43  1  0.66773373  0.83513507  0.06864815  1
  O  O44  1  0.16690137  0.83345069  0.06863406  1
  O  O45  1  0.66507064  0.33253241  0.43049298  1
  O  O46  1  0.83329558  0.16664778  0.93189508  1
  O  O47  1  0.66507064  0.83253822  0.43049298  1
