# generated using pymatgen
data_Ti6Al2C3O
_symmetry_space_group_name_H-M   'P 1'
_cell_length_a   6.04411904
_cell_length_b   6.04587218
_cell_length_c   18.23757148
_cell_angle_alpha   90.00000000
_cell_angle_beta   90.05010238
_cell_angle_gamma   120.00959533
_symmetry_Int_Tables_number   1
_chemical_formula_structural   Ti6Al2C3O
_chemical_formula_sum   'Ti24 Al8 C12 O4'
_cell_volume   577.09510172
_cell_formula_units_Z   4
loop_
 _symmetry_equiv_pos_site_id
 _symmetry_equiv_pos_as_xyz
  1  'x, y, z'
loop_
 _atom_site_type_symbol
 _atom_site_label
 _atom_site_symmetry_multiplicity
 _atom_site_fract_x
 _atom_site_fract_y
 _atom_site_fract_z
 _atom_site_occupancy
  Ti  Ti0  1  0.16905415  0.33452708  0.87075428  1
  Ti  Ti1  1  0.33345702  0.16669876  0.36964082  1
  Ti  Ti2  1  0.33506358  0.16949568  0.13008650  1
  Ti  Ti3  1  0.16472971  0.33236486  0.62899891  1
  Ti  Ti4  1  0.00006521  0.00007562  0.00032691  1
  Ti  Ti5  1  0.00322791  0.00160368  0.49987526  1
  Ti  Ti6  1  0.16646506  0.83323253  0.86986375  1
  Ti  Ti7  1  0.33345702  0.66675825  0.36964082  1
  Ti  Ti8  1  0.33506358  0.66556788  0.13008650  1
  Ti  Ti9  1  0.16490943  0.83245472  0.62932530  1
  Ti  Ti10  1  0.00006521  0.49998959  0.00032691  1
  Ti  Ti11  1  0.00322791  0.50162424  0.49987526  1
  Ti  Ti12  1  0.66512456  0.33441593  0.87079847  1
  Ti  Ti13  1  0.83838307  0.16919153  0.36842236  1
  Ti  Ti14  1  0.83371013  0.16685505  0.13064641  1
  Ti  Ti15  1  0.66723275  0.33351113  0.62933989  1
  Ti  Ti16  1  0.49985932  0.99992966  0.00038105  1
  Ti  Ti17  1  0.49361040  0.99680520  0.50130488  1
  Ti  Ti18  1  0.66512456  0.83070862  0.87079847  1
  Ti  Ti19  1  0.83845377  0.66922689  0.36901815  1
  Ti  Ti20  1  0.83106294  0.66553148  0.12978011  1
  Ti  Ti21  1  0.66723275  0.83372163  0.62933989  1
  Ti  Ti22  1  0.49990796  0.49995398  0.00033583  1
  Ti  Ti23  1  0.49353589  0.49676794  0.50137101  1
  Al  Al24  1  0.00021988  0.99911938  0.25016904  1
  Al  Al25  1  0.99864021  0.00056727  0.75028337  1
  Al  Al26  1  0.00021988  0.50110049  0.25016904  1
  Al  Al27  1  0.99864021  0.49807294  0.75028337  1
  Al  Al28  1  0.49964709  0.99982354  0.25010359  1
  Al  Al29  1  0.50182554  0.00091277  0.75028005  1
  Al  Al30  1  0.50104331  0.50052166  0.24999928  1
  Al  Al31  1  0.50028281  0.50014140  0.75057381  1
  C  C32  1  0.16787007  0.33393504  0.42978153  1
  C  C33  1  0.33233605  0.16493897  0.93076302  1
  C  C34  1  0.33372867  0.16677994  0.56905596  1
  C  C35  1  0.16528688  0.33264344  0.06970624  1
  C  C36  1  0.16803012  0.83401506  0.42990714  1
  C  C37  1  0.33233605  0.66739707  0.93076302  1
  C  C38  1  0.33372867  0.66694872  0.56905596  1
  C  C39  1  0.83117972  0.16558986  0.56848158  1
  C  C40  1  0.66761867  0.33256437  0.06958538  1
  C  C41  1  0.83486974  0.66743487  0.93080035  1
  C  C42  1  0.83128243  0.66564122  0.56865032  1
  C  C43  1  0.66761867  0.83505430  0.06958538  1
  O  O44  1  0.16690263  0.83345131  0.06883926  1
  O  O45  1  0.66569135  0.33273796  0.43060229  1
  O  O46  1  0.83328615  0.16664307  0.93162099  1
  O  O47  1  0.66569135  0.83295338  0.43060229  1
