# generated using pymatgen
data_Ti6Al2C3O
_symmetry_space_group_name_H-M   'P 1'
_cell_length_a   6.08108154
_cell_length_b   6.08301055
_cell_length_c   18.40265300
_cell_angle_alpha   89.99999998
_cell_angle_beta   90.04033484
_cell_angle_gamma   120.01049379
_symmetry_Int_Tables_number   1
_chemical_formula_structural   Ti6Al2C3O
_chemical_formula_sum   'Ti24 Al8 C12 O4'
_cell_volume   589.47363908
_cell_formula_units_Z   4
loop_
 _symmetry_equiv_pos_site_id
 _symmetry_equiv_pos_as_xyz
  1  'x, y, z'
loop_
 _atom_site_type_symbol
 _atom_site_label
 _atom_site_symmetry_multiplicity
 _atom_site_fract_x
 _atom_site_fract_y
 _atom_site_fract_z
 _atom_site_occupancy
  Ti  Ti0  1  0.16951625  0.33475815  0.87147669  1
  Ti  Ti1  1  0.33309968  0.16650712  0.37030703  1
  Ti  Ti2  1  0.33530709  0.16996013  0.12939263  1
  Ti  Ti3  1  0.16468891  0.33234446  0.62826536  1
  Ti  Ti4  1  0.00007503  0.00007943  0.00035133  1
  Ti  Ti5  1  0.00352912  0.00176945  0.49994384  1
  Ti  Ti6  1  0.16647836  0.83323921  0.87066210  1
  Ti  Ti7  1  0.33309980  0.66659265  0.37030705  1
  Ti  Ti8  1  0.33530703  0.66534701  0.12939259  1
  Ti  Ti9  1  0.16485912  0.83242952  0.62858856  1
  Ti  Ti10  1  0.00007501  0.49999559  0.00035138  1
  Ti  Ti11  1  0.00352906  0.50175954  0.49994381  1
  Ti  Ti12  1  0.66487873  0.33466347  0.87150456  1
  Ti  Ti13  1  0.83889323  0.16944661  0.36902877  1
  Ti  Ti14  1  0.83373321  0.16686657  0.12988655  1
  Ti  Ti15  1  0.66734892  0.33357313  0.62856385  1
  Ti  Ti16  1  0.49988757  0.99994384  0.00040588  1
  Ti  Ti17  1  0.49318227  0.99659104  0.50145663  1
  Ti  Ti18  1  0.66487876  0.83021536  0.87150453  1
  Ti  Ti19  1  0.83896171  0.66948088  0.36963221  1
  Ti  Ti20  1  0.83061183  0.66530592  0.12908208  1
  Ti  Ti21  1  0.66734902  0.83377581  0.62856389  1
  Ti  Ti22  1  0.49992302  0.49996143  0.00036099  1
  Ti  Ti23  1  0.49310566  0.49655285  0.50151258  1
  Al  Al24  1  0.00021136  0.99900218  0.25021226  1
  Al  Al25  1  0.99861518  0.00061518  0.75030980  1
  Al  Al26  1  0.00021150  0.50120925  0.25021228  1
  Al  Al27  1  0.99861509  0.49799998  0.75030974  1
  Al  Al28  1  0.49970591  0.99985288  0.25011391  1
  Al  Al29  1  0.50181343  0.00090679  0.75030290  1
  Al  Al30  1  0.50118705  0.50059361  0.24997361  1
  Al  Al31  1  0.50012298  0.50006144  0.75061008  1
  C  C32  1  0.16791249  0.33395633  0.43006677  1
  C  C33  1  0.33235098  0.16492728  0.93107229  1
  C  C34  1  0.33375372  0.16680474  0.56880384  1
  C  C35  1  0.16522219  0.33261106  0.06943317  1
  C  C36  1  0.16805483  0.83402733  0.43019215  1
  C  C37  1  0.33235102  0.66742376  0.93107229  1
  C  C38  1  0.33375367  0.66694892  0.56880388  1
  C  C39  1  0.83117865  0.16558931  0.56821005  1
  C  C40  1  0.66765876  0.33254763  0.06932417  1
  C  C41  1  0.83492342  0.66746174  0.93110889  1
  C  C42  1  0.83127537  0.66563771  0.56835767  1
  C  C43  1  0.66765875  0.83511112  0.06932412  1
  O  O44  1  0.16690058  0.83345029  0.06876741  1
  O  O45  1  0.66545925  0.33263899  0.43060871  1
  O  O46  1  0.83328613  0.16664305  0.93171642  1
  O  O47  1  0.66545932  0.83282024  0.43060872  1
