# generated using pymatgen
data_Ti6Al2C3O
_symmetry_space_group_name_H-M   'P 1'
_cell_length_a   6.23908827
_cell_length_b   6.24038879
_cell_length_c   18.94891117
_cell_angle_alpha   90.00000001
_cell_angle_beta   90.06120174
_cell_angle_gamma   120.00689542
_symmetry_Int_Tables_number   1
_chemical_formula_structural   Ti6Al2C3O
_chemical_formula_sum   'Ti24 Al8 C12 O4'
_cell_volume   638.87686038
_cell_formula_units_Z   4
loop_
 _symmetry_equiv_pos_site_id
 _symmetry_equiv_pos_as_xyz
  1  'x, y, z'
loop_
 _atom_site_type_symbol
 _atom_site_label
 _atom_site_symmetry_multiplicity
 _atom_site_fract_x
 _atom_site_fract_y
 _atom_site_fract_z
 _atom_site_occupancy
  Ti  Ti0  1  0.17098061  0.33549031  0.87439446  1
  Ti  Ti1  1  0.33213855  0.16598265  0.37317206  1
  Ti  Ti2  1  0.33632096  0.17173525  0.12650574  1
  Ti  Ti3  1  0.16419895  0.33209948  0.62542058  1
  Ti  Ti4  1  0.00011560  0.00007985  0.00038095  1
  Ti  Ti5  1  0.00509963  0.00255219  0.50016090  1
  Ti  Ti6  1  0.16639199  0.83319599  0.87384762  1
  Ti  Ti7  1  0.33213855  0.66615589  0.37317206  1
  Ti  Ti8  1  0.33632096  0.66458570  0.12650574  1
  Ti  Ti9  1  0.16444349  0.83222174  0.62566287  1
  Ti  Ti10  1  0.00011560  0.50003575  0.00038095  1
  Ti  Ti11  1  0.00509963  0.50254743  0.50016090  1
  Ti  Ti12  1  0.66400456  0.33537904  0.87443574  1
  Ti  Ti13  1  0.84135908  0.17067953  0.37163104  1
  Ti  Ti14  1  0.83384495  0.16692246  0.12679592  1
  Ti  Ti15  1  0.66758663  0.33364637  0.62552565  1
  Ti  Ti16  1  0.49983404  0.99991702  0.00045113  1
  Ti  Ti17  1  0.49088765  0.99544383  0.50206222  1
  Ti  Ti18  1  0.66400456  0.82862553  0.87443574  1
  Ti  Ti19  1  0.84148805  0.67074403  0.37217545  1
  Ti  Ti20  1  0.82902521  0.66451261  0.12624070  1
  Ti  Ti21  1  0.66758663  0.83394028  0.62552565  1
  Ti  Ti22  1  0.49990699  0.49995349  0.00039530  1
  Ti  Ti23  1  0.49082968  0.49541484  0.50212501  1
  Al  Al24  1  0.00026217  0.99910064  0.25041197  1
  Al  Al25  1  0.99851644  0.00054449  0.75042441  1
  Al  Al26  1  0.00026217  0.50116153  0.25041197  1
  Al  Al27  1  0.99851644  0.49797194  0.75042441  1
  Al  Al28  1  0.49968077  0.99984038  0.25021002  1
  Al  Al29  1  0.50176809  0.00088405  0.75044697  1
  Al  Al30  1  0.50109135  0.50054567  0.24999104  1
  Al  Al31  1  0.50008892  0.50004446  0.75079910  1
  C  C32  1  0.16839165  0.33419583  0.43100049  1
  C  C33  1  0.33232897  0.16495793  0.93208525  1
  C  C34  1  0.33356481  0.16677170  0.56789747  1
  C  C35  1  0.16527085  0.33263543  0.06847821  1
  C  C36  1  0.16841783  0.83420892  0.43109515  1
  C  C37  1  0.33232897  0.66737104  0.93208525  1
  C  C38  1  0.33356481  0.66679308  0.56789747  1
  C  C39  1  0.83089789  0.16544894  0.56718522  1
  C  C40  1  0.66776044  0.33262589  0.06838984  1
  C  C41  1  0.83485686  0.66742844  0.93213152  1
  C  C42  1  0.83092926  0.66546463  0.56733480  1
  C  C43  1  0.66776044  0.83513455  0.06838984  1
  O  O44  1  0.16689981  0.83344991  0.06858659  1
  O  O45  1  0.66491176  0.33248104  0.43040363  1
  O  O46  1  0.83329505  0.16664752  0.93195137  1
  O  O47  1  0.66491176  0.83243070  0.43040363  1
