# generated using pymatgen
data_Ti6Al2C3O
_symmetry_space_group_name_H-M   'P 1'
_cell_length_a   6.16401602
_cell_length_b   6.16570678
_cell_length_c   18.67960391
_cell_angle_alpha   90.00000001
_cell_angle_beta   90.04126083
_cell_angle_gamma   120.00907389
_symmetry_Int_Tables_number   1
_chemical_formula_structural   Ti6Al2C3O
_chemical_formula_sum   'Ti24 Al8 C12 O4'
_cell_volume   614.75922444
_cell_formula_units_Z   4
loop_
 _symmetry_equiv_pos_site_id
 _symmetry_equiv_pos_as_xyz
  1  'x, y, z'
loop_
 _atom_site_type_symbol
 _atom_site_label
 _atom_site_symmetry_multiplicity
 _atom_site_fract_x
 _atom_site_fract_y
 _atom_site_fract_z
 _atom_site_occupancy
  Ti  Ti0  1  0.17031775  0.33515889  0.87291759  1
  Ti  Ti1  1  0.33258441  0.16623168  0.37174422  1
  Ti  Ti2  1  0.33579670  0.17086813  0.12796101  1
  Ti  Ti3  1  0.16444032  0.33222017  0.62684452  1
  Ti  Ti4  1  0.00009054  0.00007696  0.00035756  1
  Ti  Ti5  1  0.00429341  0.00214869  0.50005735  1
  Ti  Ti6  1  0.16645902  0.83322952  0.87224012  1
  Ti  Ti7  1  0.33258441  0.66635272  0.37174422  1
  Ti  Ti8  1  0.33579670  0.66492856  0.12796101  1
  Ti  Ti9  1  0.16464225  0.83232113  0.62713170  1
  Ti  Ti10  1  0.00009054  0.50001358  0.00035756  1
  Ti  Ti11  1  0.00429341  0.50214473  0.50005735  1
  Ti  Ti12  1  0.66443869  0.33505634  0.87294803  1
  Ti  Ti13  1  0.84014652  0.17007326  0.37032641  1
  Ti  Ti14  1  0.83375643  0.16687821  0.12834126  1
  Ti  Ti15  1  0.66746881  0.33361285  0.62705413  1
  Ti  Ti16  1  0.49985591  0.99992796  0.00042088  1
  Ti  Ti17  1  0.49208797  0.99604398  0.50175677  1
  Ti  Ti18  1  0.66443869  0.82938236  0.87294803  1
  Ti  Ti19  1  0.84023470  0.67011735  0.37091430  1
  Ti  Ti20  1  0.82975582  0.66487792  0.12766492  1
  Ti  Ti21  1  0.66746881  0.83385597  0.62705413  1
  Ti  Ti22  1  0.49990808  0.49995403  0.00037146  1
  Ti  Ti23  1  0.49202665  0.49601332  0.50181663  1
  Al  Al24  1  0.00022355  0.99904517  0.25029046  1
  Al  Al25  1  0.99857561  0.00058212  0.75036443  1
  Al  Al26  1  0.00022355  0.50117837  0.25029046  1
  Al  Al27  1  0.99857561  0.49799349  0.75036443  1
  Al  Al28  1  0.49967793  0.99983896  0.25016247  1
  Al  Al29  1  0.50181680  0.00090839  0.75036947  1
  Al  Al30  1  0.50111874  0.50055937  0.25000129  1
  Al  Al31  1  0.50014168  0.50007083  0.75068034  1
  C  C32  1  0.16815107  0.33407554  0.43054381  1
  C  C33  1  0.33233776  0.16493187  0.93156584  1
  C  C34  1  0.33367642  0.16679323  0.56836507  1
  C  C35  1  0.16522093  0.33261048  0.06894973  1
  C  C36  1  0.16823408  0.83411704  0.43065453  1
  C  C37  1  0.33233776  0.66740588  0.93156584  1
  C  C38  1  0.33367642  0.66688318  0.56836507  1
  C  C39  1  0.83104994  0.16552496  0.56770603  1
  C  C40  1  0.66769959  0.33257543  0.06885310  1
  C  C41  1  0.83490467  0.66745234  0.93160737  1
  C  C42  1  0.83111705  0.66555853  0.56785573  1
  C  C43  1  0.66769959  0.83512416  0.06885310  1
  O  O44  1  0.16688650  0.83344325  0.06866885  1
  O  O45  1  0.66519105  0.33255941  0.43055379  1
  O  O46  1  0.83329610  0.16664804  0.93182381  1
  O  O47  1  0.66519105  0.83263164  0.43055379  1
