# generated using pymatgen
data_Ti6Al2C3O
_symmetry_space_group_name_H-M   'P 1'
_cell_length_a   6.12262645
_cell_length_b   6.12443552
_cell_length_c   18.54065817
_cell_angle_alpha   90.00000001
_cell_angle_beta   90.04537424
_cell_angle_gamma   120.00977452
_symmetry_Int_Tables_number   1
_chemical_formula_structural   Ti6Al2C3O
_chemical_formula_sum   'Ti24 Al8 C12 O4'
_cell_volume   602.02793414
_cell_formula_units_Z   4
loop_
 _symmetry_equiv_pos_site_id
 _symmetry_equiv_pos_as_xyz
  1  'x, y, z'
loop_
 _atom_site_type_symbol
 _atom_site_label
 _atom_site_symmetry_multiplicity
 _atom_site_fract_x
 _atom_site_fract_y
 _atom_site_fract_z
 _atom_site_occupancy
  Ti  Ti0  1  0.16990920  0.33495461  0.87214780  1
  Ti  Ti1  1  0.33285332  0.16637598  0.37103098  1
  Ti  Ti2  1  0.33553619  0.17040369  0.12867659  1
  Ti  Ti3  1  0.16458623  0.33229312  0.62759658  1
  Ti  Ti4  1  0.00007262  0.00007342  0.00032923  1
  Ti  Ti5  1  0.00389920  0.00195256  0.50001672  1
  Ti  Ti6  1  0.16645880  0.83322941  0.87141473  1
  Ti  Ti7  1  0.33285332  0.66647733  0.37103098  1
  Ti  Ti8  1  0.33553619  0.66513248  0.12867659  1
  Ti  Ti9  1  0.16477405  0.83238703  0.62789972  1
  Ti  Ti10  1  0.00007262  0.49999920  0.00032923  1
  Ti  Ti11  1  0.00389920  0.50194665  0.50001672  1
  Ti  Ti12  1  0.66466720  0.33485121  0.87218807  1
  Ti  Ti13  1  0.83951643  0.16975821  0.36967634  1
  Ti  Ti14  1  0.83372901  0.16686450  0.12910423  1
  Ti  Ti15  1  0.66743632  0.33360306  0.62784737  1
  Ti  Ti16  1  0.49984515  0.99992257  0.00039001  1
  Ti  Ti17  1  0.49265588  0.99632794  0.50162992  1
  Ti  Ti18  1  0.66466720  0.82981599  0.87218807  1
  Ti  Ti19  1  0.83958985  0.66979493  0.37026700  1
  Ti  Ti20  1  0.83017000  0.66508501  0.12838047  1
  Ti  Ti21  1  0.66743632  0.83383326  0.62784737  1
  Ti  Ti22  1  0.49990605  0.49995302  0.00034159  1
  Ti  Ti23  1  0.49258450  0.49629225  0.50168981  1
  Al  Al24  1  0.00016380  0.99905183  0.25024845  1
  Al  Al25  1  0.99864118  0.00060155  0.75033661  1
  Al  Al26  1  0.00016380  0.50111198  0.25024845  1
  Al  Al27  1  0.99864118  0.49803963  0.75033661  1
  Al  Al28  1  0.49963923  0.99981961  0.25014303  1
  Al  Al29  1  0.50185904  0.00092952  0.75033471  1
  Al  Al30  1  0.50104933  0.50052467  0.25000437  1
  Al  Al31  1  0.50022675  0.50011336  0.75064172  1
  C  C32  1  0.16803394  0.33401698  0.43031931  1
  C  C33  1  0.33234027  0.16493066  0.93128235  1
  C  C34  1  0.33372228  0.16680278  0.56861633  1
  C  C35  1  0.16520704  0.33260352  0.06917537  1
  C  C36  1  0.16814828  0.83407414  0.43043507  1
  C  C37  1  0.33234027  0.66740960  0.93128235  1
  C  C38  1  0.33372228  0.66691948  0.56861633  1
  C  C39  1  0.83113216  0.16556608  0.56798485  1
  C  C40  1  0.66765994  0.33255554  0.06907199  1
  C  C41  1  0.83491200  0.66745600  0.93132508  1
  C  C42  1  0.83120920  0.66560460  0.56813730  1
  C  C43  1  0.66765994  0.83510440  0.06907199  1
  O  O44  1  0.16687549  0.83343774  0.06870467  1
  O  O45  1  0.66534858  0.33261081  0.43061541  1
  O  O46  1  0.83330061  0.16665030  0.93173613  1
  O  O47  1  0.66534858  0.83273776  0.43061541  1
