# generated using pymatgen
data_Ti4Al2CO
_symmetry_space_group_name_H-M   'P 1'
_cell_length_a   5.98554766
_cell_length_b   2.99552574
_cell_length_c   13.60709545
_cell_angle_alpha   90.00000000
_cell_angle_beta   90.00000000
_cell_angle_gamma   120.03042210
_symmetry_Int_Tables_number   1
_chemical_formula_structural   Ti4Al2CO
_chemical_formula_sum   'Ti8 Al4 C2 O2'
_cell_volume   211.22231373
_cell_formula_units_Z   2
loop_
 _symmetry_equiv_pos_site_id
 _symmetry_equiv_pos_as_xyz
  1  'x, y, z'
loop_
 _atom_site_type_symbol
 _atom_site_label
 _atom_site_symmetry_multiplicity
 _atom_site_fract_x
 _atom_site_fract_y
 _atom_site_fract_z
 _atom_site_occupancy
  Ti  Ti0  1  0.17072159  0.67072160  0.08790424  1
  Ti  Ti1  1  0.33473070  0.33473069  0.58726920  1
  Ti  Ti2  1  0.33473070  0.33473069  0.91273080  1
  Ti  Ti3  1  0.17072159  0.67072160  0.41209576  1
  Ti  Ti4  1  0.66526931  0.66526931  0.08726920  1
  Ti  Ti5  1  0.82927840  0.32927840  0.58790424  1
  Ti  Ti6  1  0.82927840  0.32927840  0.91209576  1
  Ti  Ti7  1  0.66526931  0.66526931  0.41273080  1
  Al  Al8  1  0.16605131  0.66605132  0.75000000  1
  Al  Al9  1  0.33286058  0.33286057  0.25000000  1
  Al  Al10  1  0.66713943  0.66713943  0.75000000  1
  Al  Al11  1  0.83394868  0.33394868  0.25000000  1
  O  O12  1  0.00000000  0.00000000  0.00000000  1
  O  O13  1  0.00000000  0.00000000  0.50000000  1
  C  C14  1  0.50000000  0.00000000  0.00000000  1
  C  C15  1  0.50000000  0.00000000  0.50000000  1
