# generated using pymatgen
data_Ti4Al2CO
_symmetry_space_group_name_H-M   'P 1'
_cell_length_a   6.02855389
_cell_length_b   3.01750480
_cell_length_c   13.69794640
_cell_angle_alpha   90.00000000
_cell_angle_beta   90.00000000
_cell_angle_gamma   120.03542982
_symmetry_Int_Tables_number   1
_chemical_formula_structural   Ti4Al2CO
_chemical_formula_sum   'Ti8 Al4 C2 O2'
_cell_volume   215.72081434
_cell_formula_units_Z   2
loop_
 _symmetry_equiv_pos_site_id
 _symmetry_equiv_pos_as_xyz
  1  'x, y, z'
loop_
 _atom_site_type_symbol
 _atom_site_label
 _atom_site_symmetry_multiplicity
 _atom_site_fract_x
 _atom_site_fract_y
 _atom_site_fract_z
 _atom_site_occupancy
  Ti  Ti0  1  0.17109847  0.67109848  0.08743089  1
  Ti  Ti1  1  0.33519398  0.33519397  0.58666516  1
  Ti  Ti2  1  0.33519398  0.33519397  0.91333484  1
  Ti  Ti3  1  0.17109847  0.67109848  0.41256911  1
  Ti  Ti4  1  0.66480603  0.66480603  0.08666516  1
  Ti  Ti5  1  0.82890152  0.32890152  0.58743089  1
  Ti  Ti6  1  0.82890152  0.32890152  0.91256911  1
  Ti  Ti7  1  0.66480603  0.66480603  0.41333484  1
  Al  Al8  1  0.16615328  0.66615329  0.75000000  1
  Al  Al9  1  0.33280649  0.33280648  0.25000000  1
  Al  Al10  1  0.66719352  0.66719352  0.75000000  1
  Al  Al11  1  0.83384671  0.33384671  0.25000000  1
  O  O12  1  0.00000000  0.00000000  0.00000000  1
  O  O13  1  0.00000000  0.00000000  0.50000000  1
  C  C14  1  0.50000000  0.00000000  0.00000000  1
  C  C15  1  0.50000000  0.00000000  0.50000000  1
