# generated using pymatgen
data_Ti4Al2CO
_symmetry_space_group_name_H-M   'P 1'
_cell_length_a   6.10666626
_cell_length_b   3.05663810
_cell_length_c   13.87708934
_cell_angle_alpha   90.00000000
_cell_angle_beta   90.00000000
_cell_angle_gamma   120.03581253
_symmetry_Int_Tables_number   1
_chemical_formula_structural   Ti4Al2CO
_chemical_formula_sum   'Ti8 Al4 C2 O2'
_cell_volume   224.24377037
_cell_formula_units_Z   2
loop_
 _symmetry_equiv_pos_site_id
 _symmetry_equiv_pos_as_xyz
  1  'x, y, z'
loop_
 _atom_site_type_symbol
 _atom_site_label
 _atom_site_symmetry_multiplicity
 _atom_site_fract_x
 _atom_site_fract_y
 _atom_site_fract_z
 _atom_site_occupancy
  Ti  Ti0  1  0.17215568  0.67215569  0.08646881  1
  Ti  Ti1  1  0.33558405  0.33558404  0.58558165  1
  Ti  Ti2  1  0.33558405  0.33558404  0.91441835  1
  Ti  Ti3  1  0.17215568  0.67215569  0.41353119  1
  Ti  Ti4  1  0.66441596  0.66441596  0.08558165  1
  Ti  Ti5  1  0.82784431  0.32784431  0.58646881  1
  Ti  Ti6  1  0.82784431  0.32784431  0.91353119  1
  Ti  Ti7  1  0.66441596  0.66441596  0.41441835  1
  Al  Al8  1  0.16582187  0.66582188  0.75000000  1
  Al  Al9  1  0.33280207  0.33280206  0.25000000  1
  Al  Al10  1  0.66719794  0.66719794  0.75000000  1
  Al  Al11  1  0.83417812  0.33417812  0.25000000  1
  O  O12  1  0.00000000  -0.00000000  -0.00000000  1
  O  O13  1  0.00000000  -0.00000000  0.50000000  1
  C  C14  1  0.50000000  -0.00000000  -0.00000000  1
  C  C15  1  0.50000000  -0.00000000  0.50000000  1
