# generated using pymatgen
data_Ti4Al2CO
_symmetry_space_group_name_H-M   'P 1'
_cell_length_a   6.14974128
_cell_length_b   3.07819737
_cell_length_c   13.96900232
_cell_angle_alpha   90.00000000
_cell_angle_beta   90.00000000
_cell_angle_gamma   120.03579576
_symmetry_Int_Tables_number   1
_chemical_formula_structural   Ti4Al2CO
_chemical_formula_sum   'Ti8 Al4 C2 O2'
_cell_volume   228.92465329
_cell_formula_units_Z   2
loop_
 _symmetry_equiv_pos_site_id
 _symmetry_equiv_pos_as_xyz
  1  'x, y, z'
loop_
 _atom_site_type_symbol
 _atom_site_label
 _atom_site_symmetry_multiplicity
 _atom_site_fract_x
 _atom_site_fract_y
 _atom_site_fract_z
 _atom_site_occupancy
  Ti  Ti0  1  0.17266418  0.67266419  0.08594031  1
  Ti  Ti1  1  0.33592765  0.33592764  0.58496600  1
  Ti  Ti2  1  0.33592765  0.33592764  0.91503400  1
  Ti  Ti3  1  0.17266418  0.67266419  0.41405969  1
  Ti  Ti4  1  0.66407236  0.66407236  0.08496600  1
  Ti  Ti5  1  0.82733581  0.32733581  0.58594031  1
  Ti  Ti6  1  0.82733581  0.32733581  0.91405969  1
  Ti  Ti7  1  0.66407236  0.66407236  0.41503400  1
  Al  Al8  1  0.16580833  0.66580834  0.75000000  1
  Al  Al9  1  0.33278307  0.33278306  0.25000000  1
  Al  Al10  1  0.66721694  0.66721694  0.75000000  1
  Al  Al11  1  0.83419166  0.33419166  0.25000000  1
  O  O12  1  -0.00000000  -0.00000000  -0.00000000  1
  O  O13  1  -0.00000000  -0.00000000  0.50000000  1
  C  C14  1  0.50000000  -0.00000000  -0.00000000  1
  C  C15  1  0.50000000  -0.00000000  0.50000000  1
