# generated using pymatgen
data_Ti4Al2CO
_symmetry_space_group_name_H-M   'P 1'
_cell_length_a   6.22138703
_cell_length_b   3.11308783
_cell_length_c   14.13947927
_cell_angle_alpha   90.00000000
_cell_angle_beta   90.00000000
_cell_angle_gamma   120.02546482
_symmetry_Int_Tables_number   1
_chemical_formula_structural   Ti4Al2CO
_chemical_formula_sum   'Ti8 Al4 C2 O2'
_cell_volume   237.09977558
_cell_formula_units_Z   2
loop_
 _symmetry_equiv_pos_site_id
 _symmetry_equiv_pos_as_xyz
  1  'x, y, z'
loop_
 _atom_site_type_symbol
 _atom_site_label
 _atom_site_symmetry_multiplicity
 _atom_site_fract_x
 _atom_site_fract_y
 _atom_site_fract_z
 _atom_site_occupancy
  Ti  Ti0  1  0.17359932  0.67359933  0.08502763  1
  Ti  Ti1  1  0.33639484  0.33639483  0.58395377  1
  Ti  Ti2  1  0.33639484  0.33639483  0.91604623  1
  Ti  Ti3  1  0.17359932  0.67359933  0.41497237  1
  Ti  Ti4  1  0.66360517  0.66360517  0.08395377  1
  Ti  Ti5  1  0.82640067  0.32640067  0.58502763  1
  Ti  Ti6  1  0.82640067  0.32640067  0.91497237  1
  Ti  Ti7  1  0.66360517  0.66360517  0.41604623  1
  Al  Al8  1  0.16574226  0.66574227  0.75000000  1
  Al  Al9  1  0.33281223  0.33281222  0.25000000  1
  Al  Al10  1  0.66718778  0.66718778  0.75000000  1
  Al  Al11  1  0.83425773  0.33425773  0.25000000  1
  O  O12  1  0.00000000  0.00000000  -0.00000000  1
  O  O13  1  0.00000000  0.00000000  0.50000000  1
  C  C14  1  0.50000000  0.00000000  -0.00000000  1
  C  C15  1  0.50000000  0.00000000  0.50000000  1
