# generated using pymatgen
data_Ti4Al2CO
_symmetry_space_group_name_H-M   'P 1'
_cell_length_a   6.06982148
_cell_length_b   3.03822487
_cell_length_c   13.79787560
_cell_angle_alpha   90.00000000
_cell_angle_beta   90.00000000
_cell_angle_gamma   120.03612974
_symmetry_Int_Tables_number   1
_chemical_formula_structural   Ti4Al2CO
_chemical_formula_sum   'Ti8 Al4 C2 O2'
_cell_volume   220.28273591
_cell_formula_units_Z   2
loop_
 _symmetry_equiv_pos_site_id
 _symmetry_equiv_pos_as_xyz
  1  'x, y, z'
loop_
 _atom_site_type_symbol
 _atom_site_label
 _atom_site_symmetry_multiplicity
 _atom_site_fract_x
 _atom_site_fract_y
 _atom_site_fract_z
 _atom_site_occupancy
  Ti  Ti0  1  0.17174051  0.67174052  0.08691001  1
  Ti  Ti1  1  0.33530683  0.33530682  0.58609618  1
  Ti  Ti2  1  0.33530683  0.33530682  0.91390382  1
  Ti  Ti3  1  0.17174051  0.67174052  0.41308999  1
  Ti  Ti4  1  0.66469318  0.66469318  0.08609618  1
  Ti  Ti5  1  0.82825948  0.32825948  0.58691001  1
  Ti  Ti6  1  0.82825948  0.32825948  0.91308999  1
  Ti  Ti7  1  0.66469318  0.66469318  0.41390382  1
  Al  Al8  1  0.16582131  0.66582132  0.75000000  1
  Al  Al9  1  0.33280926  0.33280925  0.25000000  1
  Al  Al10  1  0.66719075  0.66719075  0.75000000  1
  Al  Al11  1  0.83417868  0.33417868  0.25000000  1
  O  O12  1  0.00000000  0.00000000  -0.00000000  1
  O  O13  1  0.00000000  0.00000000  0.50000000  1
  C  C14  1  0.50000000  0.00000000  -0.00000000  1
  C  C15  1  0.50000000  0.00000000  0.50000000  1
