# generated using pymatgen
data_Ti4Al2CO
_symmetry_space_group_name_H-M   'P 1'
_cell_length_a   6.18664889
_cell_length_b   3.09663869
_cell_length_c   14.04794307
_cell_angle_alpha   90.00000000
_cell_angle_beta   90.00000000
_cell_angle_gamma   120.03544855
_symmetry_Int_Tables_number   1
_chemical_formula_structural   Ti4Al2CO
_chemical_formula_sum   'Ti8 Al4 C2 O2'
_cell_volume   232.98831071
_cell_formula_units_Z   2
loop_
 _symmetry_equiv_pos_site_id
 _symmetry_equiv_pos_as_xyz
  1  'x, y, z'
loop_
 _atom_site_type_symbol
 _atom_site_label
 _atom_site_symmetry_multiplicity
 _atom_site_fract_x
 _atom_site_fract_y
 _atom_site_fract_z
 _atom_site_occupancy
  Ti  Ti0  1  0.17311981  0.67311982  0.08547431  1
  Ti  Ti1  1  0.33623829  0.33623828  0.58442220  1
  Ti  Ti2  1  0.33623829  0.33623828  0.91557780  1
  Ti  Ti3  1  0.17311981  0.67311982  0.41452569  1
  Ti  Ti4  1  0.66376172  0.66376172  0.08442220  1
  Ti  Ti5  1  0.82688018  0.32688018  0.58547431  1
  Ti  Ti6  1  0.82688018  0.32688018  0.91452569  1
  Ti  Ti7  1  0.66376172  0.66376172  0.41557780  1
  Al  Al8  1  0.16580103  0.66580104  0.75000000  1
  Al  Al9  1  0.33276399  0.33276398  0.25000000  1
  Al  Al10  1  0.66723602  0.66723602  0.75000000  1
  Al  Al11  1  0.83419896  0.33419896  0.25000000  1
  O  O12  1  0.00000000  -0.00000000  -0.00000000  1
  O  O13  1  0.00000000  -0.00000000  0.50000000  1
  C  C14  1  0.50000000  -0.00000000  -0.00000000  1
  C  C15  1  0.50000000  -0.00000000  0.50000000  1
