# generated using pymatgen
data_Ti3AlCO
_symmetry_space_group_name_H-M   'P 1'
_cell_length_a   6.01676650
_cell_length_b   3.00761969
_cell_length_c   18.55364189
_cell_angle_alpha   90.00000002
_cell_angle_beta   90.03268405
_cell_angle_gamma   119.99160411
_symmetry_Int_Tables_number   1
_chemical_formula_structural   Ti3AlCO
_chemical_formula_sum   'Ti12 Al4 C4 O4'
_cell_volume   290.79204427
_cell_formula_units_Z   4
loop_
 _symmetry_equiv_pos_site_id
 _symmetry_equiv_pos_as_xyz
  1  'x, y, z'
loop_
 _atom_site_type_symbol
 _atom_site_label
 _atom_site_symmetry_multiplicity
 _atom_site_fract_x
 _atom_site_fract_y
 _atom_site_fract_z
 _atom_site_occupancy
  Ti  Ti0  1  0.16709011  0.66709012  0.86525751  1
  Ti  Ti1  1  0.33953273  0.33953272  0.36875548  1
  Ti  Ti2  1  0.33593601  0.33593600  0.13208485  1
  Ti  Ti3  1  0.16722101  0.66722102  0.62863471  1
  Ti  Ti4  1  0.98220528  0.98220528  0.00338750  1
  Ti  Ti5  1  0.99354306  0.99354306  0.50129012  1
  Ti  Ti6  1  0.66594722  0.66594722  0.86523815  1
  Ti  Ti7  1  0.83359748  0.33359748  0.36957075  1
  Ti  Ti8  1  0.83416839  0.33416839  0.13192668  1
  Ti  Ti9  1  0.66494437  0.66494437  0.62833691  1
  Ti  Ti10  1  0.51353388  0.01353388  0.00469708  1
  Ti  Ti11  1  0.50317362  0.00317362  0.49968802  1
  Al  Al12  1  0.00280536  0.00280536  0.25098341  1
  Al  Al13  1  0.99976318  0.99976318  0.74935608  1
  Al  Al14  1  0.49961794  0.99961794  0.25056376  1
  Al  Al15  1  0.49948822  0.99948822  0.74916941  1
  O  O16  1  0.16588959  0.66588960  0.43081136  1
  O  O17  1  0.33097999  0.33097998  0.93529232  1
  O  O18  1  0.16730761  0.66730762  0.06513285  1
  O  O19  1  0.83426422  0.33426422  0.93392622  1
  C  C20  1  0.33132816  0.33132815  0.56774032  1
  C  C21  1  0.66826181  0.66826181  0.43001124  1
  C  C22  1  0.83390333  0.33390333  0.56804854  1
  C  C23  1  0.66549743  0.66549743  0.07009676  1
