# generated using pymatgen
data_Ti3AlCO
_symmetry_space_group_name_H-M   'P 1'
_cell_length_a   5.97400046
_cell_length_b   2.98622502
_cell_length_c   18.42509027
_cell_angle_alpha   89.99999999
_cell_angle_beta   90.03004844
_cell_angle_gamma   119.99141496
_symmetry_Int_Tables_number   1
_chemical_formula_structural   Ti3AlCO
_chemical_formula_sum   'Ti12 Al4 C4 O4'
_cell_volume   284.68561364
_cell_formula_units_Z   4
loop_
 _symmetry_equiv_pos_site_id
 _symmetry_equiv_pos_as_xyz
  1  'x, y, z'
loop_
 _atom_site_type_symbol
 _atom_site_label
 _atom_site_symmetry_multiplicity
 _atom_site_fract_x
 _atom_site_fract_y
 _atom_site_fract_z
 _atom_site_occupancy
  Ti  Ti0  1  0.16704127  0.66704128  0.86489045  1
  Ti  Ti1  1  0.33901295  0.33901294  0.36818883  1
  Ti  Ti2  1  0.33544580  0.33544579  0.13254567  1
  Ti  Ti3  1  0.16714338  0.66714339  0.62935856  1
  Ti  Ti4  1  0.98304123  0.98304123  0.00325755  1
  Ti  Ti5  1  0.99400843  0.99400843  0.50116231  1
  Ti  Ti6  1  0.66589863  0.66589863  0.86488682  1
  Ti  Ti7  1  0.83380671  0.33380671  0.36889509  1
  Ti  Ti8  1  0.83449240  0.33449240  0.13245702  1
  Ti  Ti9  1  0.66500096  0.66500096  0.62903601  1
  Ti  Ti10  1  0.51295443  0.01295443  0.00454153  1
  Ti  Ti11  1  0.50289708  0.00289708  0.49964866  1
  Al  Al12  1  0.00278091  0.00278091  0.25096862  1
  Al  Al13  1  0.99972961  0.99972961  0.74931941  1
  Al  Al14  1  0.49964199  0.99964199  0.25053623  1
  Al  Al15  1  0.49951318  0.99951318  0.74913883  1
  O  O16  1  0.16597667  0.66597668  0.43075785  1
  O  O17  1  0.33098167  0.33098166  0.93507283  1
  O  O18  1  0.16738282  0.66738283  0.06542437  1
  O  O19  1  0.83421495  0.33421495  0.93362294  1
  C  C20  1  0.33139354  0.33139353  0.56797820  1
  C  C21  1  0.66818443  0.66818443  0.42979281  1
  C  C22  1  0.83393729  0.33393729  0.56823984  1
  C  C23  1  0.66551968  0.66551968  0.07027956  1
