# generated using pymatgen
data_Ti3AlCO
_symmetry_space_group_name_H-M   'P 1'
_cell_length_a   6.13105364
_cell_length_b   3.06245778
_cell_length_c   18.97940761
_cell_angle_alpha   89.99999999
_cell_angle_beta   90.04888111
_cell_angle_gamma   119.96688772
_symmetry_Int_Tables_number   1
_chemical_formula_structural   Ti3AlCO
_chemical_formula_sum   'Ti12 Al4 C4 O4'
_cell_volume   308.71882382
_cell_formula_units_Z   4
loop_
 _symmetry_equiv_pos_site_id
 _symmetry_equiv_pos_as_xyz
  1  'x, y, z'
loop_
 _atom_site_type_symbol
 _atom_site_label
 _atom_site_symmetry_multiplicity
 _atom_site_fract_x
 _atom_site_fract_y
 _atom_site_fract_z
 _atom_site_occupancy
  Ti  Ti0  1  0.16753597  0.66753598  0.86629093  1
  Ti  Ti1  1  0.34127232  0.34127231  0.37057206  1
  Ti  Ti2  1  0.33769595  0.33769594  0.13066958  1
  Ti  Ti3  1  0.16746825  0.66746826  0.62629693  1
  Ti  Ti4  1  0.97976111  0.97976111  0.00394967  1
  Ti  Ti5  1  0.99218131  0.99218131  0.50161969  1
  Ti  Ti6  1  0.66617263  0.66617263  0.86625954  1
  Ti  Ti7  1  0.83285963  0.33285963  0.37171162  1
  Ti  Ti8  1  0.83290839  0.33290839  0.13030051  1
  Ti  Ti9  1  0.66468131  0.66468131  0.62610756  1
  Ti  Ti10  1  0.51513720  0.01513720  0.00514965  1
  Ti  Ti11  1  0.50411527  0.00411527  0.49981409  1
  Al  Al12  1  0.00300467  0.00300467  0.25112786  1
  Al  Al13  1  0.99976323  0.99976323  0.74940344  1
  Al  Al14  1  0.49962763  0.99962763  0.25080124  1
  Al  Al15  1  0.49933278  0.99933278  0.74920614  1
  O  O16  1  0.16539464  0.66539465  0.43094101  1
  O  O17  1  0.33073983  0.33073982  0.93593207  1
  O  O18  1  0.16695238  0.66695239  0.06433378  1
  O  O19  1  0.83465143  0.33465143  0.93498995  1
  C  C20  1  0.33118853  0.33118852  0.56692450  1
  C  C21  1  0.66845279  0.66845279  0.43073081  1
  C  C22  1  0.83388968  0.33388968  0.56732423  1
  C  C23  1  0.66521306  0.66521306  0.06954320  1
