# generated using pymatgen
data_Ti3AlCO
_symmetry_space_group_name_H-M   'P 1'
_cell_length_a   6.09551061
_cell_length_b   3.04497684
_cell_length_c   18.86108828
_cell_angle_alpha   89.99999999
_cell_angle_beta   90.04169939
_cell_angle_gamma   119.96984754
_symmetry_Int_Tables_number   1
_chemical_formula_structural   Ti3AlCO
_chemical_formula_sum   'Ti12 Al4 C4 O4'
_cell_volume   303.26562513
_cell_formula_units_Z   4
loop_
 _symmetry_equiv_pos_site_id
 _symmetry_equiv_pos_as_xyz
  1  'x, y, z'
loop_
 _atom_site_type_symbol
 _atom_site_label
 _atom_site_symmetry_multiplicity
 _atom_site_fract_x
 _atom_site_fract_y
 _atom_site_fract_z
 _atom_site_occupancy
  Ti  Ti0  1  0.16742499  0.66742500  0.86595834  1
  Ti  Ti1  1  0.34071220  0.34071219  0.37002637  1
  Ti  Ti2  1  0.33714636  0.33714635  0.13111212  1
  Ti  Ti3  1  0.16740217  0.66740218  0.62699161  1
  Ti  Ti4  1  0.98053622  0.98053622  0.00381838  1
  Ti  Ti5  1  0.99265547  0.99265547  0.50150977  1
  Ti  Ti6  1  0.66612492  0.66612492  0.86595105  1
  Ti  Ti7  1  0.83304154  0.33304154  0.37105916  1
  Ti  Ti8  1  0.83326769  0.33326769  0.13080698  1
  Ti  Ti9  1  0.66477487  0.66477487  0.62676122  1
  Ti  Ti10  1  0.51462652  0.01462652  0.00500679  1
  Ti  Ti11  1  0.50381855  0.00381855  0.49978267  1
  Al  Al12  1  0.00297425  0.00297425  0.25108934  1
  Al  Al13  1  0.99972135  0.99972135  0.74933699  1
  Al  Al14  1  0.49963484  0.99963484  0.25074894  1
  Al  Al15  1  0.49936170  0.99936170  0.74915091  1
  O  O16  1  0.16552433  0.66552434  0.43094054  1
  O  O17  1  0.33068099  0.33068098  0.93576562  1
  O  O18  1  0.16707836  0.66707837  0.06460946  1
  O  O19  1  0.83463994  0.33463994  0.93466962  1
  C  C20  1  0.33127883  0.33127882  0.56714293  1
  C  C21  1  0.66838653  0.66838653  0.43053612  1
  C  C22  1  0.83391909  0.33391909  0.56751879  1
  C  C23  1  0.66526829  0.66526829  0.06970631  1
