# generated using pymatgen
data_Ti3AlCO
_symmetry_space_group_name_H-M   'P 1'
_cell_length_a   6.17193758
_cell_length_b   3.08256514
_cell_length_c   19.12104862
_cell_angle_alpha   89.99999999
_cell_angle_beta   90.06360826
_cell_angle_gamma   119.96352153
_symmetry_Int_Tables_number   1
_chemical_formula_structural   Ti3AlCO
_chemical_formula_sum   'Ti12 Al4 C4 O4'
_cell_volume   315.16304701
_cell_formula_units_Z   4
loop_
 _symmetry_equiv_pos_site_id
 _symmetry_equiv_pos_as_xyz
  1  'x, y, z'
loop_
 _atom_site_type_symbol
 _atom_site_label
 _atom_site_symmetry_multiplicity
 _atom_site_fract_x
 _atom_site_fract_y
 _atom_site_fract_z
 _atom_site_occupancy
  Ti  Ti0  1  0.16773229  0.66773230  0.86671924  1
  Ti  Ti1  1  0.34192080  0.34192079  0.37123451  1
  Ti  Ti2  1  0.33838800  0.33838799  0.13013621  1
  Ti  Ti3  1  0.16756599  0.66756600  0.62543918  1
  Ti  Ti4  1  0.97875201  0.97875201  0.00414191  1
  Ti  Ti5  1  0.99160035  0.99160035  0.50173978  1
  Ti  Ti6  1  0.66622584  0.66622584  0.86664840  1
  Ti  Ti7  1  0.83271691  0.33271691  0.37250521  1
  Ti  Ti8  1  0.83242587  0.33242587  0.12968578  1
  Ti  Ti9  1  0.66458953  0.66458953  0.62529468  1
  Ti  Ti10  1  0.51573883  0.01573883  0.00532447  1
  Ti  Ti11  1  0.50449546  0.00449546  0.49983917  1
  Al  Al12  1  0.00305691  0.00305691  0.25117939  1
  Al  Al13  1  0.99982490  0.99982490  0.74949086  1
  Al  Al14  1  0.49968182  0.99968182  0.25086322  1
  Al  Al15  1  0.49923562  0.99923562  0.74926758  1
  O  O16  1  0.16525393  0.66525394  0.43091370  1
  O  O17  1  0.33080647  0.33080646  0.93613157  1
  O  O18  1  0.16674613  0.66674614  0.06401073  1
  O  O19  1  0.83466647  0.33466647  0.93541594  1
  C  C20  1  0.33111490  0.33111489  0.56663732  1
  C  C21  1  0.66855924  0.66855924  0.43095464  1
  C  C22  1  0.83384798  0.33384798  0.56706390  1
  C  C23  1  0.66505377  0.66505377  0.06936264  1
