# generated using pymatgen
data_Ti3AlCO
_symmetry_space_group_name_H-M   'P 1'
_cell_length_a   6.20720844
_cell_length_b   3.09977081
_cell_length_c   19.24164397
_cell_angle_alpha   90.00000000
_cell_angle_beta   90.07418531
_cell_angle_gamma   119.95914993
_symmetry_Int_Tables_number   1
_chemical_formula_structural   Ti3AlCO
_chemical_formula_sum   'Ti12 Al4 C4 O4'
_cell_volume   320.75752724
_cell_formula_units_Z   4
loop_
 _symmetry_equiv_pos_site_id
 _symmetry_equiv_pos_as_xyz
  1  'x, y, z'
loop_
 _atom_site_type_symbol
 _atom_site_label
 _atom_site_symmetry_multiplicity
 _atom_site_fract_x
 _atom_site_fract_y
 _atom_site_fract_z
 _atom_site_occupancy
  Ti  Ti0  1  0.16791244  0.66791245  0.86707955  1
  Ti  Ti1  1  0.34252196  0.34252195  0.37183032  1
  Ti  Ti2  1  0.33904998  0.33904997  0.12965062  1
  Ti  Ti3  1  0.16763590  0.66763591  0.62469306  1
  Ti  Ti4  1  0.97786991  0.97786991  0.00430057  1
  Ti  Ti5  1  0.99105212  0.99105212  0.50186451  1
  Ti  Ti6  1  0.66625537  0.66625537  0.86697509  1
  Ti  Ti7  1  0.83258789  0.33258789  0.37321572  1
  Ti  Ti8  1  0.83200850  0.33200850  0.12913686  1
  Ti  Ti9  1  0.66448517  0.66448517  0.62459188  1
  Ti  Ti10  1  0.51626942  0.01626942  0.00547303  1
  Ti  Ti11  1  0.50484613  0.00484613  0.49987805  1
  Al  Al12  1  0.00309253  0.00309253  0.25121183  1
  Al  Al13  1  0.99987213  0.99987213  0.74958759  1
  Al  Al14  1  0.49967811  0.99967811  0.25090781  1
  Al  Al15  1  0.49918855  0.99918855  0.74934091  1
  O  O16  1  0.16511430  0.66511431  0.43086342  1
  O  O17  1  0.33096766  0.33096765  0.93625537  1
  O  O18  1  0.16654303  0.66654304  0.06372967  1
  O  O19  1  0.83460018  0.33460018  0.93579323  1
  C  C20  1  0.33103436  0.33103435  0.56640547  1
  C  C21  1  0.66865725  0.66865725  0.43115883  1
  C  C22  1  0.83379076  0.33379076  0.56686091  1
  C  C23  1  0.66496634  0.66496634  0.06919572  1
