# generated using pymatgen
data_Ti3AlCO
_symmetry_space_group_name_H-M   'P 1'
_cell_length_a   6.05334128
_cell_length_b   3.02411150
_cell_length_c   18.72789550
_cell_angle_alpha   90.00000002
_cell_angle_beta   90.03552982
_cell_angle_gamma   119.97203377
_symmetry_Int_Tables_number   1
_chemical_formula_structural   Ti3AlCO
_chemical_formula_sum   'Ti12 Al4 C4 O4'
_cell_volume   296.98517806
_cell_formula_units_Z   4
loop_
 _symmetry_equiv_pos_site_id
 _symmetry_equiv_pos_as_xyz
  1  'x, y, z'
loop_
 _atom_site_type_symbol
 _atom_site_label
 _atom_site_symmetry_multiplicity
 _atom_site_fract_x
 _atom_site_fract_y
 _atom_site_fract_z
 _atom_site_occupancy
  Ti  Ti0  1  0.16730864  0.66730865  0.86557414  1
  Ti  Ti1  1  0.34011117  0.34011116  0.36940913  1
  Ti  Ti2  1  0.33654415  0.33654414  0.13157960  1
  Ti  Ti3  1  0.16729137  0.66729138  0.62778854  1
  Ti  Ti4  1  0.98137439  0.98137439  0.00363143  1
  Ti  Ti5  1  0.99315903  0.99315903  0.50140503  1
  Ti  Ti6  1  0.66606242  0.66606242  0.86557644  1
  Ti  Ti7  1  0.83327954  0.33327954  0.37032824  1
  Ti  Ti8  1  0.83371161  0.33371161  0.13136133  1
  Ti  Ti9  1  0.66485671  0.66485671  0.62753326  1
  Ti  Ti10  1  0.51406157  0.01406157  0.00483159  1
  Ti  Ti11  1  0.50348681  0.00348681  0.49975367  1
  Al  Al12  1  0.00291131  0.00291131  0.25103322  1
  Al  Al13  1  0.99972225  0.99972225  0.74932864  1
  Al  Al14  1  0.49960937  0.99960937  0.25067775  1
  Al  Al15  1  0.49943605  0.99943605  0.74915317  1
  O  O16  1  0.16568023  0.66568024  0.43092568  1
  O  O17  1  0.33073845  0.33073844  0.93554638  1
  O  O18  1  0.16717799  0.66717800  0.06489699  1
  O  O19  1  0.83451658  0.33451658  0.93430347  1
  C  C20  1  0.33132775  0.33132774  0.56741042  1
  C  C21  1  0.66830182  0.66830182  0.43032749  1
  C  C22  1  0.83392335  0.33392335  0.56775082  1
  C  C23  1  0.66540745  0.66540745  0.06987358  1
