# generated using pymatgen
data_HfTaTiNbC4
_symmetry_space_group_name_H-M   'P 1'
_cell_length_a   6.37578036
_cell_length_b   6.36469650
_cell_length_c   4.45241612
_cell_angle_alpha   90.00000000
_cell_angle_beta   90.00000000
_cell_angle_gamma   90.02998769
_symmetry_Int_Tables_number   1
_chemical_formula_structural   HfTaTiNbC4
_chemical_formula_sum   'Hf2 Ta2 Ti2 Nb2 C8'
_cell_volume   180.67860712
_cell_formula_units_Z   2
loop_
 _symmetry_equiv_pos_site_id
 _symmetry_equiv_pos_as_xyz
  1  'x, y, z'
loop_
 _atom_site_type_symbol
 _atom_site_label
 _atom_site_symmetry_multiplicity
 _atom_site_fract_x
 _atom_site_fract_y
 _atom_site_fract_z
 _atom_site_occupancy
  C  C0  1  0.24671897  0.75135552  0.00000000  1
  C  C1  1  0.24608330  0.24822008  0.00000000  1
  C  C2  1  0.00679413  0.50137075  0.50000000  1
  C  C3  1  0.00779645  0.99932940  0.50000000  1
  C  C4  1  0.75343221  0.75079926  0.00000000  1
  C  C5  1  0.75327659  0.24979361  0.00000000  1
  C  C6  1  0.49353593  0.50125224  0.50000000  1
  C  C7  1  0.49317703  0.99840903  0.50000000  1
  Hf  Hf8  1  0.75102352  0.24851027  0.50000000  1
  Hf  Hf9  1  0.75154199  0.75190791  0.50000000  1
  Nb  Nb10  1  0.49698898  0.99690277  0.00000000  1
  Nb  Nb11  1  0.49648170  0.50166360  0.00000000  1
  Ta  Ta12  1  0.24844991  0.24713977  0.50000000  1
  Ta  Ta13  1  0.00196488  0.50331001  0.00000000  1
  Ti  Ti14  1  0.24927387  0.75186348  0.50000000  1
  Ti  Ti15  1  0.00346052  0.99817229  0.00000000  1
