# generated using pymatgen
data_Ti7WN8
_symmetry_space_group_name_H-M   'P 1'
_cell_length_a   7.39269043
_cell_length_b   7.39269043
_cell_length_c   6.72664187
_cell_angle_alpha   111.50514827
_cell_angle_beta   111.50514829
_cell_angle_gamma   70.39562596
_symmetry_Int_Tables_number   1
_chemical_formula_structural   Ti7WN8
_chemical_formula_sum   'Ti14 W2 N16'
_cell_volume   309.51053077
_cell_formula_units_Z   2
loop_
 _symmetry_equiv_pos_site_id
 _symmetry_equiv_pos_as_xyz
  1  'x, y, z'
loop_
 _atom_site_type_symbol
 _atom_site_label
 _atom_site_symmetry_multiplicity
 _atom_site_fract_x
 _atom_site_fract_y
 _atom_site_fract_z
 _atom_site_occupancy
  W  W0  1  0.87131908  0.87131908  0.48258679  1
  W  W1  1  0.75368092  0.75368092  0.01741321  1
  N  N2  1  0.49709039  0.00217594  0.99925765  1
  N  N3  1  0.56382610  0.56382610  0.75240047  1
  N  N4  1  0.37513909  0.87414019  0.49924939  1
  N  N5  1  0.43818823  0.43818823  0.25023617  1
  N  N6  1  0.24986091  0.75085981  0.00075061  1
  N  N7  1  0.06117390  0.06117390  0.74759953  1
  N  N8  1  0.31250000  0.31250000  0.75000000  1
  N  N9  1  0.12790961  0.62282406  0.50074235  1
  N  N10  1  0.94670678  0.94670678  0.25117711  1
  N  N11  1  0.18681177  0.18681177  0.24976383  1
  N  N12  1  0.00217594  0.49709039  0.99925765  1
  N  N13  1  0.81250000  0.81250000  0.75000000  1
  N  N14  1  0.87414019  0.37513909  0.49924939  1
  N  N15  1  0.67829322  0.67829322  0.24882289  1
  N  N16  1  0.75085981  0.24986091  0.00075061  1
  N  N17  1  0.62282406  0.12790961  0.50074235  1
  Ti  Ti18  1  0.49289661  0.49289661  0.99035965  1
  Ti  Ti19  1  0.56334612  0.06165388  0.75000000  1
  Ti  Ti20  1  0.37266291  0.37266291  0.49438632  1
  Ti  Ti21  1  0.44067903  0.93636915  0.25108566  1
  Ti  Ti22  1  0.25233709  0.25233709  0.00561368  1
  Ti  Ti23  1  0.06165388  0.56334612  0.75000000  1
  Ti  Ti24  1  0.31250000  0.81250000  0.75000000  1
  Ti  Ti25  1  0.13210339  0.13210339  0.50964035  1
  Ti  Ti26  1  0.93636915  0.44067903  0.25108566  1
  Ti  Ti27  1  0.18432097  0.68863085  0.24891434  1
  Ti  Ti28  1  0.00330177  0.00330177  0.99889899  1
  Ti  Ti29  1  0.81250000  0.31250000  0.75000000  1
  Ti  Ti30  1  0.68863085  0.18432097  0.24891434  1
  Ti  Ti31  1  0.62169823  0.62169823  0.50110101  1
