# generated using pymatgen
data_Ti3WC4
_symmetry_space_group_name_H-M   'P 1'
_cell_length_a   7.51636587
_cell_length_b   7.51705930
_cell_length_c   6.86230428
_cell_angle_alpha   111.44416387
_cell_angle_beta   111.44476568
_cell_angle_gamma   70.51189583
_symmetry_Int_Tables_number   1
_chemical_formula_structural   Ti3WC4
_chemical_formula_sum   'Ti12 W4 C16'
_cell_volume   326.83344046
_cell_formula_units_Z   4
loop_
 _symmetry_equiv_pos_site_id
 _symmetry_equiv_pos_as_xyz
  1  'x, y, z'
loop_
 _atom_site_type_symbol
 _atom_site_label
 _atom_site_symmetry_multiplicity
 _atom_site_fract_x
 _atom_site_fract_y
 _atom_site_fract_z
 _atom_site_occupancy
  W  W0  1  0.56495496  0.05772316  0.74807991  1
  W  W1  1  0.36797169  0.37989980  0.49952523  1
  W  W2  1  0.81421832  0.31093826  0.75489621  1
  W  W3  1  0.69206335  0.18369193  0.24605505  1
  C  C4  1  0.50023395  0.99961871  0.99803459  1
  C  C5  1  0.56183717  0.56209293  0.74981371  1
  C  C6  1  0.37650843  0.87611617  0.50039122  1
  C  C7  1  0.43740005  0.43762016  0.25052220  1
  C  C8  1  0.25004828  0.75063460  0.99994529  1
  C  C9  1  0.06200402  0.06375729  0.74991446  1
  C  C10  1  0.31211335  0.31295846  0.74984659  1
  C  C11  1  0.12512493  0.62380388  0.49968667  1
  C  C12  1  0.93715193  0.93829429  0.24964454  1
  C  C13  1  0.18857259  0.18898662  0.25129784  1
  C  C14  1  0.99908492  0.49897243  0.99968586  1
  C  C15  1  0.81161464  0.81288711  0.75026053  1
  C  C16  1  0.87474147  0.37430904  0.50223364  1
  C  C17  1  0.68700535  0.68724065  0.25016763  1
  C  C18  1  0.75113189  0.25036481  0.00183698  1
  C  C19  1  0.62527947  0.12311633  0.49727591  1
  Ti  Ti20  1  0.49656885  0.50340456  0.00207658  1
  Ti  Ti21  1  0.43933365  0.93765333  0.24841432  1
  Ti  Ti22  1  0.24965029  0.25265974  0.99889006  1
  Ti  Ti23  1  0.05946651  0.56352616  0.74985964  1
  Ti  Ti24  1  0.31302402  0.81468839  0.75266427  1
  Ti  Ti25  1  0.12612569  0.12528102  0.50126701  1
  Ti  Ti26  1  0.93560644  0.43720588  0.25061400  1
  Ti  Ti27  1  0.18616012  0.69047868  0.24925684  1
  Ti  Ti28  1  0.00478581  0.00014029  0.00243453  1
  Ti  Ti29  1  0.87757578  0.87027315  0.49877746  1
  Ti  Ti30  1  0.74922108  0.74661148  0.99800345  1
  Ti  Ti31  1  0.62342098  0.62505070  0.49862777  1
