# generated using pymatgen
data_HfZrTaTiNbC5
_symmetry_space_group_name_H-M   'P 1'
_cell_length_a   7.16275835
_cell_length_b   7.16116332
_cell_length_c   4.54203184
_cell_angle_alpha   90.00000000
_cell_angle_beta   90.00000000
_cell_angle_gamma   89.91446054
_symmetry_Int_Tables_number   1
_chemical_formula_structural   HfZrTaTiNbC5
_chemical_formula_sum   'Hf2 Zr2 Ta2 Ti2 Nb2 C10'
_cell_volume   232.97727888
_cell_formula_units_Z   2
loop_
 _symmetry_equiv_pos_site_id
 _symmetry_equiv_pos_as_xyz
  1  'x, y, z'
loop_
 _atom_site_type_symbol
 _atom_site_label
 _atom_site_symmetry_multiplicity
 _atom_site_fract_x
 _atom_site_fract_y
 _atom_site_fract_z
 _atom_site_occupancy
  C  C0  1  0.29525909  0.90251796  0.00000000  1
  C  C1  1  0.49140087  0.49657680  0.00000000  1
  C  C2  1  0.39209853  0.19464862  0.50000000  1
  C  C3  1  0.10728756  0.29639683  0.00000000  1
  C  C4  1  0.00859724  0.99817635  0.50000000  1
  C  C5  1  0.70068896  0.09791105  0.00000000  1
  C  C6  1  0.59800151  0.79836781  0.50000000  1
  C  C7  1  0.19623870  0.60290316  0.50000000  1
  C  C8  1  0.90461901  0.70687880  0.00000000  1
  C  C9  1  0.80544839  0.40663376  0.50000000  1
  Hf  Hf10  1  0.49477230  0.49813285  0.50000000  1
  Hf  Hf11  1  0.59586256  0.80168194  0.00000000  1
  Nb  Nb12  1  0.20206556  0.60092397  0.00000000  1
  Nb  Nb13  1  0.10479097  0.29569110  0.50000000  1
  Ta  Ta14  1  0.90210142  0.70216380  0.50000000  1
  Ta  Ta15  1  0.00468906  0.00062110  0.00000000  1
  Ti  Ti16  1  0.30067583  0.90032864  0.50000000  1
  Ti  Ti17  1  0.39667823  0.19521630  0.00000000  1
  Zr  Zr18  1  0.69755565  0.10187975  0.50000000  1
  Zr  Zr19  1  0.80116854  0.40234943  0.00000000  1
