# generated using pymatgen
data_HfTaTiNbVC5
_symmetry_space_group_name_H-M   'P 1'
_cell_length_a   7.00955402
_cell_length_b   7.00575576
_cell_length_c   4.43870096
_cell_angle_alpha   90.00000000
_cell_angle_beta   90.00000000
_cell_angle_gamma   89.92213609
_symmetry_Int_Tables_number   1
_chemical_formula_structural   HfTaTiNbVC5
_chemical_formula_sum   'Hf2 Ta2 Ti2 Nb2 V2 C10'
_cell_volume   217.97207857
_cell_formula_units_Z   2
loop_
 _symmetry_equiv_pos_site_id
 _symmetry_equiv_pos_as_xyz
  1  'x, y, z'
loop_
 _atom_site_type_symbol
 _atom_site_label
 _atom_site_symmetry_multiplicity
 _atom_site_fract_x
 _atom_site_fract_y
 _atom_site_fract_z
 _atom_site_occupancy
  C  C0  1  0.29520374  0.90472981  0.00000000  1
  C  C1  1  0.50469421  0.49181647  0.00000000  1
  C  C2  1  0.40399298  0.19290024  0.50000000  1
  C  C3  1  0.09595095  0.29777647  0.00000000  1
  C  C4  1  0.99598022  0.99852997  0.50000000  1
  C  C5  1  0.70098581  0.11295892  0.00000000  1
  C  C6  1  0.60116459  0.80828487  0.50000000  1
  C  C7  1  0.19774279  0.60193906  0.50000000  1
  C  C8  1  0.90190747  0.69692779  0.00000000  1
  C  C9  1  0.80437512  0.39307810  0.50000000  1
  Hf  Hf10  1  0.50286663  0.49650305  0.50000000  1
  Hf  Hf11  1  0.59953070  0.80840449  0.00000000  1
  Nb  Nb12  1  0.20166538  0.59508142  0.00000000  1
  Nb  Nb13  1  0.10265434  0.29282826  0.50000000  1
  Ta  Ta14  1  0.89851296  0.69937921  0.50000000  1
  Ta  Ta15  1  0.00023977  0.00434561  0.00000000  1
  Ti  Ti16  1  0.30332458  0.90194846  0.50000000  1
  Ti  Ti17  1  0.40373208  0.19765167  0.00000000  1
  V  V18  1  0.69378899  0.10919162  0.50000000  1
  V  V19  1  0.79168668  0.39572454  0.00000000  1
