# generated using pymatgen
data_HfTaTiNbWC5
_symmetry_space_group_name_H-M   'P 1'
_cell_length_a   7.05957496
_cell_length_b   7.06126307
_cell_length_c   4.45780771
_cell_angle_alpha   90.00000000
_cell_angle_beta   90.00000000
_cell_angle_gamma   89.98032494
_symmetry_Int_Tables_number   1
_chemical_formula_structural   HfTaTiNbWC5
_chemical_formula_sum   'Hf2 Ta2 Ti2 Nb2 W2 C10'
_cell_volume   222.21954335
_cell_formula_units_Z   2
loop_
 _symmetry_equiv_pos_site_id
 _symmetry_equiv_pos_as_xyz
  1  'x, y, z'
loop_
 _atom_site_type_symbol
 _atom_site_label
 _atom_site_symmetry_multiplicity
 _atom_site_fract_x
 _atom_site_fract_y
 _atom_site_fract_z
 _atom_site_occupancy
  C  C0  1  0.29550131  0.90419359  0.00000000  1
  C  C1  1  0.50324566  0.49336976  0.00000000  1
  C  C2  1  0.40159200  0.19476682  0.50000000  1
  C  C3  1  0.09845939  0.29682502  0.00000000  1
  C  C4  1  0.99904752  0.99755953  0.50000000  1
  C  C5  1  0.69882619  0.10766752  0.00000000  1
  C  C6  1  0.60032767  0.80691940  0.50000000  1
  C  C7  1  0.19676605  0.60236774  0.50000000  1
  C  C8  1  0.90204145  0.69835495  0.00000000  1
  C  C9  1  0.80489259  0.39836704  0.50000000  1
  Hf  Hf10  1  0.49962483  0.50153391  0.50000000  1
  Hf  Hf11  1  0.59782090  0.80743954  0.00000000  1
  Nb  Nb12  1  0.20186536  0.59373371  0.00000000  1
  Nb  Nb13  1  0.10845874  0.29106001  0.50000000  1
  Ta  Ta14  1  0.90438109  0.70326435  0.50000000  1
  Ta  Ta15  1  0.00727845  0.00178573  0.00000000  1
  Ti  Ti16  1  0.30053689  0.90101156  0.50000000  1
  Ti  Ti17  1  0.39917070  0.19784900  0.00000000  1
  W  W18  1  0.68756610  0.10327430  0.50000000  1
  W  W19  1  0.79259714  0.39865651  0.00000000  1
