# generated using pymatgen
data_HfTaTiNbVC5
_symmetry_space_group_name_H-M   'P 1'
_cell_length_a   6.99803453
_cell_length_b   6.99828423
_cell_length_c   4.45153902
_cell_angle_alpha   90.00000000
_cell_angle_beta   90.00000000
_cell_angle_gamma   89.89011276
_symmetry_Int_Tables_number   1
_chemical_formula_structural   HfTaTiNbVC5
_chemical_formula_sum   'Hf2 Ta2 Ti2 Nb2 V2 C10'
_cell_volume   218.01031578
_cell_formula_units_Z   2
loop_
 _symmetry_equiv_pos_site_id
 _symmetry_equiv_pos_as_xyz
  1  'x, y, z'
loop_
 _atom_site_type_symbol
 _atom_site_label
 _atom_site_symmetry_multiplicity
 _atom_site_fract_x
 _atom_site_fract_y
 _atom_site_fract_z
 _atom_site_occupancy
  C  C0  1  0.29580517  0.90594583  0.00000000  1
  C  C1  1  0.50694896  0.49133829  0.00000000  1
  C  C2  1  0.40486286  0.19231894  0.50000000  1
  C  C3  1  0.09651376  0.29759169  0.00000000  1
  C  C4  1  0.99764488  0.99831892  0.50000000  1
  C  C5  1  0.70021641  0.11311898  0.00000000  1
  C  C6  1  0.60028342  0.80848098  0.50000000  1
  C  C7  1  0.19718677  0.60260967  0.50000000  1
  C  C8  1  0.90156142  0.69712309  0.00000000  1
  C  C9  1  0.80354284  0.39383850  0.50000000  1
  Hf  Hf10  1  0.50208627  0.49786582  0.50000000  1
  Hf  Hf11  1  0.60085268  0.80871127  0.00000000  1
  Nb  Nb12  1  0.19895313  0.59367619  0.00000000  1
  Nb  Nb13  1  0.10237987  0.29508212  0.50000000  1
  Ta  Ta14  1  0.90024437  0.69875056  0.50000000  1
  Ta  Ta15  1  0.00015979  0.00692517  0.00000000  1
  Ti  Ti16  1  0.30128881  0.90045005  0.50000000  1
  Ti  Ti17  1  0.40368611  0.19676095  0.00000000  1
  V  V18  1  0.69658480  0.10861747  0.50000000  1
  V  V19  1  0.78919768  0.39247553  0.00000000  1
