# generated using pymatgen
data_HfTaTiMnNbC5
_symmetry_space_group_name_H-M   'P 1'
_cell_length_a   6.98784810
_cell_length_b   6.97941030
_cell_length_c   4.43795854
_cell_angle_alpha   90.00000000
_cell_angle_beta   90.00000000
_cell_angle_gamma   89.72835948
_symmetry_Int_Tables_number   1
_chemical_formula_structural   HfTaTiMnNbC5
_chemical_formula_sum   'Hf2 Ta2 Ti2 Mn2 Nb2 C10'
_cell_volume   216.44150525
_cell_formula_units_Z   2
loop_
 _symmetry_equiv_pos_site_id
 _symmetry_equiv_pos_as_xyz
  1  'x, y, z'
loop_
 _atom_site_type_symbol
 _atom_site_label
 _atom_site_symmetry_multiplicity
 _atom_site_fract_x
 _atom_site_fract_y
 _atom_site_fract_z
 _atom_site_occupancy
  C  C0  1  0.29634144  0.90660651  0.00000000  1
  C  C1  1  0.50449699  0.49026878  0.00000000  1
  C  C2  1  0.40428178  0.19180017  0.50000000  1
  C  C3  1  0.09279682  0.29931593  0.00000000  1
  C  C4  1  0.99608282  0.99935145  0.50000000  1
  C  C5  1  0.69843172  0.11515840  0.00000000  1
  C  C6  1  0.60111685  0.80558516  0.50000000  1
  C  C7  1  0.19856063  0.60325595  0.50000000  1
  C  C8  1  0.90330172  0.69781219  0.00000000  1
  C  C9  1  0.80598864  0.39148432  0.50000000  1
  Hf  Hf10  1  0.50494856  0.49304564  0.50000000  1
  Hf  Hf11  1  0.60280542  0.81249560  0.00000000  1
  Nb  Nb12  1  0.20222915  0.59500662  0.00000000  1
  Nb  Nb13  1  0.10220896  0.29474029  0.50000000  1
  Ta  Ta14  1  0.89858604  0.69461932  0.50000000  1
  Ta  Ta15  1  0.99928552  0.01175825  0.00000000  1
  Ti  Ti16  1  0.30315678  0.90006361  0.50000000  1
  Ti  Ti17  1  0.40720880  0.19626219  0.00000000  1
  Mn  Mn18  1  0.70749896  0.12185917  0.50000000  1
  Mn  Mn19  1  0.77067239  0.37951047  0.00000000  1
