# generated using pymatgen
data_Nb2AlC
_symmetry_space_group_name_H-M   'P 1'
_cell_length_a   3.12594534
_cell_length_b   3.12594534
_cell_length_c   13.90205401
_cell_angle_alpha   90.00000000
_cell_angle_beta   90.00000000
_cell_angle_gamma   120.00000005
_symmetry_Int_Tables_number   1
_chemical_formula_structural   Nb2AlC
_chemical_formula_sum   'Nb4 Al2 C2'
_cell_volume   117.64469868
_cell_formula_units_Z   2
loop_
 _symmetry_equiv_pos_site_id
 _symmetry_equiv_pos_as_xyz
  1  'x, y, z'
loop_
 _atom_site_type_symbol
 _atom_site_label
 _atom_site_symmetry_multiplicity
 _atom_site_fract_x
 _atom_site_fract_y
 _atom_site_fract_z
 _atom_site_occupancy
  Al  Al0  1  0.33333333  0.66666667  0.75000000  1
  Al  Al1  1  0.66666667  0.33333333  0.25000000  1
  Nb  Nb2  1  0.33333333  0.66666667  0.08913651  1
  Nb  Nb3  1  0.66666667  0.33333333  0.58913651  1
  Nb  Nb4  1  0.66666667  0.33333333  0.91086349  1
  Nb  Nb5  1  0.33333333  0.66666667  0.41086349  1
  C  C6  1  -0.00000000  -0.00000000  0.00000000  1
  C  C7  1  -0.00000000  -0.00000000  0.50000000  1
