# generated using pymatgen
data_Hf2AlC
_symmetry_space_group_name_H-M   'P 1'
_cell_length_a   3.27300397
_cell_length_b   3.27300396
_cell_length_c   14.39813756
_cell_angle_alpha   90.00000000
_cell_angle_beta   90.00000000
_cell_angle_gamma   119.99999997
_symmetry_Int_Tables_number   1
_chemical_formula_structural   Hf2AlC
_chemical_formula_sum   'Hf4 Al2 C2'
_cell_volume   133.57648581
_cell_formula_units_Z   2
loop_
 _symmetry_equiv_pos_site_id
 _symmetry_equiv_pos_as_xyz
  1  'x, y, z'
loop_
 _atom_site_type_symbol
 _atom_site_label
 _atom_site_symmetry_multiplicity
 _atom_site_fract_x
 _atom_site_fract_y
 _atom_site_fract_z
 _atom_site_occupancy
  Al  Al0  1  0.33333333  0.66666667  0.75000000  1
  Al  Al1  1  0.66666667  0.33333333  0.25000000  1
  Hf  Hf2  1  0.33333333  0.66666667  0.08667318  1
  Hf  Hf3  1  0.66666667  0.33333333  0.58667318  1
  Hf  Hf4  1  0.66666667  0.33333333  0.91332682  1
  Hf  Hf5  1  0.33333333  0.66666667  0.41332682  1
  C  C6  1  0.00000000  0.00000000  0.00000000  1
  C  C7  1  0.00000000  0.00000000  0.50000000  1
