# generated using pymatgen
data_MnVFeCoNi
_symmetry_space_group_name_H-M   'P 1'
_cell_length_a   5.56390858
_cell_length_b   5.52580614
_cell_length_c   7.17993316
_cell_angle_alpha   89.82967494
_cell_angle_beta   89.91157571
_cell_angle_gamma   90.66294949
_symmetry_Int_Tables_number   1
_chemical_formula_structural   MnVFeCoNi
_chemical_formula_sum   'Mn4 V4 Fe4 Co4 Ni4'
_cell_volume   220.73159423
_cell_formula_units_Z   4
loop_
 _symmetry_equiv_pos_site_id
 _symmetry_equiv_pos_as_xyz
  1  'x, y, z'
loop_
 _atom_site_type_symbol
 _atom_site_label
 _atom_site_symmetry_multiplicity
 _atom_site_fract_x
 _atom_site_fract_y
 _atom_site_fract_z
 _atom_site_occupancy
  V  V0  1  0.08907748  0.29401101  0.73763170  1
  V  V1  1  0.19629780  0.62673188  0.99953321  1
  V  V2  1  0.29883374  0.89698575  0.27620115  1
  V  V3  1  0.41876589  0.17922332  0.00260726  1
  Co  Co4  1  0.29789816  0.89022705  0.73621989  1
  Co  Co5  1  0.50559459  0.49754303  0.74916215  1
  Co  Co6  1  0.59846619  0.79388108  0.50305174  1
  Co  Co7  1  0.89324008  0.70449473  0.24750300  1
  Mn  Mn8  1  0.98174485  0.01082769  0.99860183  1
  Mn  Mn9  1  0.20165322  0.58511474  0.51104647  1
  Mn  Mn10  1  0.41054886  0.20571962  0.49674773  1
  Mn  Mn11  1  0.89553404  0.71316951  0.75043419  1
  Fe  Fe12  1  0.70690067  0.09521622  0.25024529  1
  Fe  Fe13  1  0.79465192  0.40641600  0.49683792  1
  Fe  Fe14  1  0.61275805  0.79099647  0.99605157  1
  Fe  Fe15  1  0.80941823  0.40724466  0.00181536  1
  Ni  Ni16  1  0.99423347  0.99717001  0.50039841  1
  Ni  Ni17  1  0.10030280  0.30926142  0.25228402  1
  Ni  Ni18  1  0.69031918  0.10006968  0.74481385  1
  Ni  Ni19  1  0.50376075  0.49569616  0.24881327  1
