# generated using pymatgen
data_TiMnFeCoNi
_symmetry_space_group_name_H-M   'P 1'
_cell_length_a   5.63528927
_cell_length_b   5.58971480
_cell_length_c   7.34089841
_cell_angle_alpha   89.69741637
_cell_angle_beta   89.37774972
_cell_angle_gamma   90.62261986
_symmetry_Int_Tables_number   1
_chemical_formula_structural   TiMnFeCoNi
_chemical_formula_sum   'Ti4 Mn4 Fe4 Co4 Ni4'
_cell_volume   231.20514348
_cell_formula_units_Z   4
loop_
 _symmetry_equiv_pos_site_id
 _symmetry_equiv_pos_as_xyz
  1  'x, y, z'
loop_
 _atom_site_type_symbol
 _atom_site_label
 _atom_site_symmetry_multiplicity
 _atom_site_fract_x
 _atom_site_fract_y
 _atom_site_fract_z
 _atom_site_occupancy
  Ti  Ti0  1  0.08353215  0.28648291  0.73223477  1
  Ti  Ti1  1  0.19263467  0.63298151  0.99204478  1
  Ti  Ti2  1  0.29727322  0.89246580  0.28470239  1
  Ti  Ti3  1  0.42623046  0.17837858  0.00153859  1
  Co  Co4  1  0.29503420  0.88521817  0.72694352  1
  Co  Co5  1  0.51455210  0.49765717  0.74547367  1
  Co  Co6  1  0.60220777  0.79599349  0.50463653  1
  Co  Co7  1  0.88310191  0.70301008  0.25194653  1
  Mn  Mn8  1  0.96443020  0.01556122  0.00309964  1
  Mn  Mn9  1  0.20158785  0.57845599  0.51458011  1
  Mn  Mn10  1  0.42454871  0.21480357  0.49908287  1
  Mn  Mn11  1  0.88535894  0.72276206  0.74342357  1
  Fe  Fe12  1  0.72108873  0.09500440  0.25852765  1
  Fe  Fe13  1  0.79048547  0.41095495  0.49188889  1
  Fe  Fe14  1  0.62647727  0.78192289  0.99964045  1
  Fe  Fe15  1  0.81126372  0.40826836  0.00631627  1
  Ni  Ni16  1  0.99012491  0.99613149  0.49812241  1
  Ni  Ni17  1  0.10184782  0.31418006  0.25610942  1
  Ni  Ni18  1  0.68272762  0.09612122  0.74004148  1
  Ni  Ni19  1  0.50549229  0.49364612  0.24964646  1
