# generated using pymatgen
data_ScMnFeCoNi
_symmetry_space_group_name_H-M   'P 1'
_cell_length_a   5.79624253
_cell_length_b   5.75530080
_cell_length_c   7.55928085
_cell_angle_alpha   89.54828221
_cell_angle_beta   89.01767145
_cell_angle_gamma   89.78519386
_symmetry_Int_Tables_number   1
_chemical_formula_structural   ScMnFeCoNi
_chemical_formula_sum   'Sc4 Mn4 Fe4 Co4 Ni4'
_cell_volume   252.12440684
_cell_formula_units_Z   4
loop_
 _symmetry_equiv_pos_site_id
 _symmetry_equiv_pos_as_xyz
  1  'x, y, z'
loop_
 _atom_site_type_symbol
 _atom_site_label
 _atom_site_symmetry_multiplicity
 _atom_site_fract_x
 _atom_site_fract_y
 _atom_site_fract_z
 _atom_site_occupancy
  Sc  Sc0  1  0.06554442  0.27374374  0.73336772  1
  Sc  Sc1  1  0.19661270  0.63686033  0.98546229  1
  Sc  Sc2  1  0.29635231  0.89742070  0.29057150  1
  Sc  Sc3  1  0.43342408  0.18242553  0.99705069  1
  Co  Co4  1  0.29684166  0.88130639  0.70396416  1
  Co  Co5  1  0.53811408  0.50007680  0.73959654  1
  Co  Co6  1  0.61282395  0.78629788  0.50597802  1
  Co  Co7  1  0.86742124  0.70648293  0.25746705  1
  Mn  Mn8  1  0.94270409  0.02628479  0.01611888  1
  Mn  Mn9  1  0.20607042  0.56932970  0.51764660  1
  Mn  Mn10  1  0.43035837  0.23271772  0.50628676  1
  Mn  Mn11  1  0.88628364  0.72406006  0.73036902  1
  Fe  Fe12  1  0.72989980  0.10162099  0.26838285  1
  Fe  Fe13  1  0.78700396  0.41180825  0.48336223  1
  Fe  Fe14  1  0.64404740  0.77038396  0.99447498  1
  Fe  Fe15  1  0.81000405  0.41191768  0.02089255  1
  Ni  Ni16  1  0.97702800  0.99256053  0.49643841  1
  Ni  Ni17  1  0.10148896  0.32460182  0.26676958  1
  Ni  Ni18  1  0.67199505  0.08159544  0.73128497  1
  Ni  Ni19  1  0.50598182  0.48850476  0.25451518  1
