# generated using pymatgen
data_MnFeCoNiMo
_symmetry_space_group_name_H-M   'P 1'
_cell_length_a   5.67543917
_cell_length_b   5.62513849
_cell_length_c   7.26816301
_cell_angle_alpha   89.85226865
_cell_angle_beta   89.94831583
_cell_angle_gamma   90.41542214
_symmetry_Int_Tables_number   1
_chemical_formula_structural   MnFeCoNiMo
_chemical_formula_sum   'Mn4 Fe4 Co4 Ni4 Mo4'
_cell_volume   232.03009014
_cell_formula_units_Z   4
loop_
 _symmetry_equiv_pos_site_id
 _symmetry_equiv_pos_as_xyz
  1  'x, y, z'
loop_
 _atom_site_type_symbol
 _atom_site_label
 _atom_site_symmetry_multiplicity
 _atom_site_fract_x
 _atom_site_fract_y
 _atom_site_fract_z
 _atom_site_occupancy
  Mo  Mo0  1  0.08373453  0.29541655  0.73876814  1
  Mo  Mo1  1  0.19958581  0.62827718  0.99968108  1
  Mo  Mo2  1  0.29931542  0.90043459  0.27727671  1
  Mo  Mo3  1  0.42011145  0.17918620  0.00188690  1
  Co  Co4  1  0.29937708  0.88722670  0.72815274  1
  Co  Co5  1  0.51384674  0.50189069  0.74727746  1
  Co  Co6  1  0.60594130  0.79013566  0.50440607  1
  Co  Co7  1  0.88636363  0.70216964  0.25104925  1
  Mn  Mn8  1  0.97131743  0.01072254  0.99829419  1
  Mn  Mn9  1  0.20935567  0.59039838  0.50779571  1
  Mn  Mn10  1  0.41010441  0.21566817  0.49984857  1
  Mn  Mn11  1  0.89344252  0.71594998  0.74760251  1
  Fe  Fe12  1  0.71117944  0.09404687  0.25209428  1
  Fe  Fe13  1  0.79289381  0.40336724  0.49731403  1
  Fe  Fe14  1  0.62118795  0.78465325  0.99210519  1
  Fe  Fe15  1  0.80554323  0.40661097  0.00680734  1
  Ni  Ni16  1  0.98893282  0.99524628  0.50122026  1
  Ni  Ni17  1  0.09509978  0.31080067  0.25586671  1
  Ni  Ni18  1  0.68680025  0.09516250  0.74025550  1
  Ni  Ni19  1  0.50586671  0.49263595  0.25229731  1
