# generated using pymatgen
data_MnFeCoTcNi
_symmetry_space_group_name_H-M   'P 1'
_cell_length_a   5.62001108
_cell_length_b   5.61016967
_cell_length_c   7.18064931
_cell_angle_alpha   90.00324864
_cell_angle_beta   89.90153896
_cell_angle_gamma   90.07075735
_symmetry_Int_Tables_number   1
_chemical_formula_structural   MnFeCoTcNi
_chemical_formula_sum   'Mn4 Fe4 Co4 Tc4 Ni4'
_cell_volume   226.39973376
_cell_formula_units_Z   4
loop_
 _symmetry_equiv_pos_site_id
 _symmetry_equiv_pos_as_xyz
  1  'x, y, z'
loop_
 _atom_site_type_symbol
 _atom_site_label
 _atom_site_symmetry_multiplicity
 _atom_site_fract_x
 _atom_site_fract_y
 _atom_site_fract_z
 _atom_site_occupancy
  Tc  Tc0  1  0.08819255  0.29869237  0.73935133  1
  Tc  Tc1  1  0.19752414  0.61207335  0.99874638  1
  Tc  Tc2  1  0.30237699  0.90546711  0.26427929  1
  Tc  Tc3  1  0.41180993  0.18886340  0.00137391  1
  Co  Co4  1  0.30150358  0.89028149  0.74113881  1
  Co  Co5  1  0.50963662  0.50745260  0.74788586  1
  Co  Co6  1  0.60235825  0.79208565  0.50307605  1
  Co  Co7  1  0.89084902  0.70002468  0.25081979  1
  Mn  Mn8  1  0.98331591  0.00658607  0.99954080  1
  Mn  Mn9  1  0.21013866  0.59581860  0.50554288  1
  Mn  Mn10  1  0.40667540  0.21276457  0.49894399  1
  Mn  Mn11  1  0.90000561  0.70713726  0.74900376  1
  Fe  Fe12  1  0.71008852  0.09205649  0.25272231  1
  Fe  Fe13  1  0.79016328  0.40045193  0.49789664  1
  Fe  Fe14  1  0.61056942  0.79115934  0.99400897  1
  Fe  Fe15  1  0.79916127  0.40320487  0.00343416  1
  Ni  Ni16  1  0.99460608  0.99406796  0.50061304  1
  Ni  Ni17  1  0.09390086  0.30841184  0.25553428  1
  Ni  Ni18  1  0.69206640  0.09646689  0.74377142  1
  Ni  Ni19  1  0.50505748  0.49693354  0.25231630  1
