# generated using pymatgen
data_MnFeCoNiPd
_symmetry_space_group_name_H-M   'P 1'
_cell_length_a   5.66644064
_cell_length_b   5.63029672
_cell_length_c   7.21802415
_cell_angle_alpha   90.07454803
_cell_angle_beta   90.02316344
_cell_angle_gamma   89.87071384
_symmetry_Int_Tables_number   1
_chemical_formula_structural   MnFeCoNiPd
_chemical_formula_sum   'Mn4 Fe4 Co4 Ni4 Pd4'
_cell_volume   230.28118177
_cell_formula_units_Z   4
loop_
 _symmetry_equiv_pos_site_id
 _symmetry_equiv_pos_as_xyz
  1  'x, y, z'
loop_
 _atom_site_type_symbol
 _atom_site_label
 _atom_site_symmetry_multiplicity
 _atom_site_fract_x
 _atom_site_fract_y
 _atom_site_fract_z
 _atom_site_occupancy
  Pd  Pd0  1  0.08658212  0.29330732  0.74377394  1
  Pd  Pd1  1  0.19672143  0.61536764  0.99604661  1
  Pd  Pd2  1  0.29867884  0.90417656  0.26534173  1
  Pd  Pd3  1  0.40852398  0.19008126  0.99745290  1
  Co  Co4  1  0.30492471  0.88899619  0.72868098  1
  Co  Co5  1  0.52120176  0.51026956  0.74377851  1
  Co  Co6  1  0.60687014  0.78488852  0.50317694  1
  Co  Co7  1  0.88482741  0.69938355  0.25628664  1
  Mn  Mn8  1  0.96399072  0.00261363  0.00583253  1
  Mn  Mn9  1  0.22049406  0.59262014  0.50670642  1
  Mn  Mn10  1  0.40793962  0.22273341  0.50222332  1
  Mn  Mn11  1  0.89189233  0.71128666  0.74286955  1
  Fe  Fe12  1  0.71376712  0.09957644  0.25606723  1
  Fe  Fe13  1  0.78447092  0.40110374  0.49500605  1
  Fe  Fe14  1  0.63233712  0.79060950  0.99384050  1
  Fe  Fe15  1  0.79932068  0.40184668  0.00930420  1
  Ni  Ni16  1  0.98654771  0.99331169  0.49952788  1
  Ni  Ni17  1  0.09072841  0.30941754  0.26092824  1
  Ni  Ni18  1  0.69080800  0.09239828  0.73964073  1
  Ni  Ni19  1  0.50937291  0.49601170  0.25351506  1
