# generated using pymatgen
data_MnFeCoNiAg
_symmetry_space_group_name_H-M   'P 1'
_cell_length_a   5.70863943
_cell_length_b   5.68221841
_cell_length_c   7.39669362
_cell_angle_alpha   90.13994493
_cell_angle_beta   89.99604467
_cell_angle_gamma   89.62807989
_symmetry_Int_Tables_number   1
_chemical_formula_structural   MnFeCoNiAg
_chemical_formula_sum   'Mn4 Fe4 Co4 Ni4 Ag4'
_cell_volume   239.92622410
_cell_formula_units_Z   4
loop_
 _symmetry_equiv_pos_site_id
 _symmetry_equiv_pos_as_xyz
  1  'x, y, z'
loop_
 _atom_site_type_symbol
 _atom_site_label
 _atom_site_symmetry_multiplicity
 _atom_site_fract_x
 _atom_site_fract_y
 _atom_site_fract_z
 _atom_site_occupancy
  Ag  Ag0  1  0.08070267  0.28817224  0.75053546  1
  Ag  Ag1  1  0.20382313  0.62079415  0.99306854  1
  Ag  Ag2  1  0.29837812  0.90168911  0.26586658  1
  Ag  Ag3  1  0.40467759  0.18162312  0.99716175  1
  Co  Co4  1  0.30529106  0.88472252  0.71396544  1
  Co  Co5  1  0.53293647  0.50940279  0.73468068  1
  Co  Co6  1  0.61131171  0.78876909  0.50276458  1
  Co  Co7  1  0.87350348  0.70310266  0.25645990  1
  Mn  Mn8  1  0.93533844  0.01486453  0.01071950  1
  Mn  Mn9  1  0.21829522  0.58060253  0.51221601  1
  Mn  Mn10  1  0.41196184  0.22760517  0.50643868  1
  Mn  Mn11  1  0.89367790  0.72216162  0.72808403  1
  Fe  Fe12  1  0.72144264  0.10574506  0.26859472  1
  Fe  Fe13  1  0.78996951  0.41148593  0.49133299  1
  Fe  Fe14  1  0.64997829  0.77312097  0.98402941  1
  Fe  Fe15  1  0.79887959  0.39718747  0.02639777  1
  Ni  Ni16  1  0.98759670  0.99580478  0.49814144  1
  Ni  Ni17  1  0.09043534  0.31544770  0.26626158  1
  Ni  Ni18  1  0.68331791  0.08662104  0.73283422  1
  Ni  Ni19  1  0.50848237  0.49107753  0.26044668  1
