# generated using pymatgen
data_TaMnFeCoNi
_symmetry_space_group_name_H-M   'P 1'
_cell_length_a   5.66933608
_cell_length_b   5.71467241
_cell_length_c   7.45653727
_cell_angle_alpha   89.75591952
_cell_angle_beta   89.59182542
_cell_angle_gamma   89.89450540
_symmetry_Int_Tables_number   1
_chemical_formula_structural   TaMnFeCoNi
_chemical_formula_sum   'Ta4 Mn4 Fe4 Co4 Ni4'
_cell_volume   241.57114724
_cell_formula_units_Z   4
loop_
 _symmetry_equiv_pos_site_id
 _symmetry_equiv_pos_as_xyz
  1  'x, y, z'
loop_
 _atom_site_type_symbol
 _atom_site_label
 _atom_site_symmetry_multiplicity
 _atom_site_fract_x
 _atom_site_fract_y
 _atom_site_fract_z
 _atom_site_occupancy
  Ta  Ta0  1  0.07562763  0.28734566  0.73183789  1
  Ta  Ta1  1  0.19509606  0.63836000  0.99249666  1
  Ta  Ta2  1  0.30158698  0.90001041  0.29052578  1
  Ta  Ta3  1  0.42443449  0.17781874  0.99957470  1
  Co  Co4  1  0.29804277  0.88761868  0.72030542  1
  Co  Co5  1  0.51966423  0.49768312  0.74756985  1
  Co  Co6  1  0.60576339  0.78253821  0.50756817  1
  Co  Co7  1  0.88298650  0.70301749  0.25251481  1
  Mn  Mn8  1  0.96842968  0.01922095  0.00706211  1
  Mn  Mn9  1  0.20205224  0.58292841  0.51432059  1
  Mn  Mn10  1  0.42090998  0.22066117  0.50019025  1
  Mn  Mn11  1  0.89104791  0.71928884  0.74222081  1
  Fe  Fe12  1  0.72042185  0.09847307  0.25292790  1
  Fe  Fe13  1  0.78555873  0.40418348  0.48744621  1
  Fe  Fe14  1  0.63231568  0.78129490  0.99704431  1
  Fe  Fe15  1  0.81061188  0.40815931  0.01051489  1
  Ni  Ni16  1  0.97797768  0.99227275  0.49900799  1
  Ni  Ni17  1  0.10067871  0.31872536  0.25947745  1
  Ni  Ni18  1  0.68191816  0.08710014  0.73806916  1
  Ni  Ni19  1  0.50487544  0.49329932  0.24932502  1
