# generated using pymatgen
data_MnFeCoReNi
_symmetry_space_group_name_H-M   'P 1'
_cell_length_a   5.66962229
_cell_length_b   5.71103395
_cell_length_c   7.24114396
_cell_angle_alpha   90.07568742
_cell_angle_beta   89.94755779
_cell_angle_gamma   90.09434259
_symmetry_Int_Tables_number   1
_chemical_formula_structural   MnFeCoReNi
_chemical_formula_sum   'Mn4 Fe4 Co4 Re4 Ni4'
_cell_volume   234.46331552
_cell_formula_units_Z   4
loop_
 _symmetry_equiv_pos_site_id
 _symmetry_equiv_pos_as_xyz
  1  'x, y, z'
loop_
 _atom_site_type_symbol
 _atom_site_label
 _atom_site_symmetry_multiplicity
 _atom_site_fract_x
 _atom_site_fract_y
 _atom_site_fract_z
 _atom_site_occupancy
  Re  Re0  1  0.09000679  0.29225349  0.73827812  1
  Re  Re1  1  0.20057747  0.60501717  0.99977029  1
  Re  Re2  1  0.30027330  0.90395591  0.26304957  1
  Re  Re3  1  0.40901044  0.19280504  0.99762116  1
  Co  Co4  1  0.30309225  0.89203931  0.74575067  1
  Co  Co5  1  0.51124193  0.50490870  0.74688274  1
  Co  Co6  1  0.60056574  0.79522478  0.50115542  1
  Co  Co7  1  0.89560659  0.69704020  0.25452293  1
  Mn  Mn8  1  0.98736883  0.00471377  0.99789820  1
  Mn  Mn9  1  0.20777077  0.59601021  0.49879592  1
  Mn  Mn10  1  0.40802202  0.20711232  0.50121578  1
  Mn  Mn11  1  0.89052027  0.71463247  0.74834822  1
  Fe  Fe12  1  0.70956443  0.09336161  0.25649868  1
  Fe  Fe13  1  0.79015909  0.40524969  0.49977351  1
  Fe  Fe14  1  0.60483078  0.79476931  0.99547211  1
  Fe  Fe15  1  0.80261940  0.40168641  0.00456119  1
  Ni  Ni16  1  0.99479235  0.99564827  0.49898942  1
  Ni  Ni17  1  0.09676483  0.30409299  0.25685027  1
  Ni  Ni18  1  0.69011929  0.10307521  0.74086748  1
  Ni  Ni19  1  0.50709344  0.49640316  0.25369828  1
