# generated using pymatgen
data_MnFeCoNiOs
_symmetry_space_group_name_H-M   'P 1'
_cell_length_a   5.61619048
_cell_length_b   5.65407429
_cell_length_c   7.16913809
_cell_angle_alpha   90.11040449
_cell_angle_beta   89.79371219
_cell_angle_gamma   89.85430722
_symmetry_Int_Tables_number   1
_chemical_formula_structural   MnFeCoNiOs
_chemical_formula_sum   'Mn4 Fe4 Co4 Ni4 Os4'
_cell_volume   227.64874081
_cell_formula_units_Z   4
loop_
 _symmetry_equiv_pos_site_id
 _symmetry_equiv_pos_as_xyz
  1  'x, y, z'
loop_
 _atom_site_type_symbol
 _atom_site_label
 _atom_site_symmetry_multiplicity
 _atom_site_fract_x
 _atom_site_fract_y
 _atom_site_fract_z
 _atom_site_occupancy
  Os  Os0  1  0.09081581  0.29818895  0.74035823  1
  Os  Os1  1  0.19376773  0.60694469  0.99676199  1
  Os  Os2  1  0.30212995  0.90531998  0.26126655  1
  Os  Os3  1  0.41230089  0.19378577  0.99990026  1
  Co  Co4  1  0.30255378  0.89318973  0.74642640  1
  Co  Co5  1  0.50623256  0.50768153  0.74939948  1
  Co  Co6  1  0.60076495  0.79114302  0.50317656  1
  Co  Co7  1  0.89357679  0.69792255  0.25092172  1
  Mn  Mn8  1  0.99083994  0.00250219  0.00154502  1
  Mn  Mn9  1  0.20838526  0.59651165  0.50414491  1
  Mn  Mn10  1  0.40638512  0.21497082  0.49836074  1
  Mn  Mn11  1  0.90142449  0.70175075  0.74869321  1
  Fe  Fe12  1  0.70750096  0.09672172  0.25038696  1
  Fe  Fe13  1  0.78885618  0.39943848  0.49788118  1
  Fe  Fe14  1  0.60740262  0.79655233  0.99730108  1
  Fe  Fe15  1  0.79775904  0.40145996  0.00300880  1
  Ni  Ni16  1  0.99415285  0.99394235  0.49991340  1
  Ni  Ni17  1  0.09421347  0.30552731  0.25462359  1
  Ni  Ni18  1  0.69586284  0.09647692  0.74465668  1
  Ni  Ni19  1  0.50507475  0.49996934  0.25127322  1
