# generated using pymatgen
data_MnCdFeCoNi
_symmetry_space_group_name_H-M   'P 1'
_cell_length_a   5.81070285
_cell_length_b   5.75877150
_cell_length_c   7.50779577
_cell_angle_alpha   89.98690663
_cell_angle_beta   89.96824485
_cell_angle_gamma   89.15659891
_symmetry_Int_Tables_number   1
_chemical_formula_structural   MnCdFeCoNi
_chemical_formula_sum   'Mn4 Cd4 Fe4 Co4 Ni4'
_cell_volume   251.20242796
_cell_formula_units_Z   4
loop_
 _symmetry_equiv_pos_site_id
 _symmetry_equiv_pos_as_xyz
  1  'x, y, z'
loop_
 _atom_site_type_symbol
 _atom_site_label
 _atom_site_symmetry_multiplicity
 _atom_site_fract_x
 _atom_site_fract_y
 _atom_site_fract_z
 _atom_site_occupancy
  Cd  Cd0  1  0.07353041  0.28115816  0.74906411  1
  Cd  Cd1  1  0.20397949  0.62864209  0.99149998  1
  Cd  Cd2  1  0.29854714  0.90474295  0.27389065  1
  Cd  Cd3  1  0.41045369  0.18044558  0.99623393  1
  Co  Co4  1  0.30812811  0.88325140  0.70371170  1
  Co  Co5  1  0.54352208  0.50884899  0.73633673  1
  Co  Co6  1  0.61772077  0.78571757  0.50426346  1
  Co  Co7  1  0.86963471  0.70365747  0.25808501  1
  Mn  Mn8  1  0.92269193  0.02065043  0.01382943  1
  Mn  Mn9  1  0.21736273  0.57270202  0.51358678  1
  Mn  Mn10  1  0.41781731  0.24010170  0.50708922  1
  Mn  Mn11  1  0.88994114  0.72063691  0.72811761  1
  Fe  Fe12  1  0.72718063  0.10682680  0.26946165  1
  Fe  Fe13  1  0.78444613  0.40601052  0.48682694  1
  Fe  Fe14  1  0.65388942  0.77207589  0.98633246  1
  Fe  Fe15  1  0.80259234  0.40276004  0.02620496  1
  Ni  Ni16  1  0.98019248  0.99090595  0.49930122  1
  Ni  Ni17  1  0.08944717  0.31861544  0.26869634  1
  Ni  Ni18  1  0.67959987  0.08175278  0.73108931  1
  Ni  Ni19  1  0.50932239  0.49049731  0.25637852  1
