# generated using pymatgen
data_HfMnFeCoNi
_symmetry_space_group_name_H-M   'P 1'
_cell_length_a   5.76032791
_cell_length_b   5.82919204
_cell_length_c   7.61198516
_cell_angle_alpha   89.43580038
_cell_angle_beta   88.82788134
_cell_angle_gamma   89.59793718
_symmetry_Int_Tables_number   1
_chemical_formula_structural   HfMnFeCoNi
_chemical_formula_sum   'Hf4 Mn4 Fe4 Co4 Ni4'
_cell_volume   255.52386660
_cell_formula_units_Z   4
loop_
 _symmetry_equiv_pos_site_id
 _symmetry_equiv_pos_as_xyz
  1  'x, y, z'
loop_
 _atom_site_type_symbol
 _atom_site_label
 _atom_site_symmetry_multiplicity
 _atom_site_fract_x
 _atom_site_fract_y
 _atom_site_fract_z
 _atom_site_occupancy
  Hf  Hf0  1  0.06384942  0.27805399  0.73264585  1
  Hf  Hf1  1  0.20142501  0.64282318  0.97920501  1
  Hf  Hf2  1  0.29331244  0.88858402  0.29319780  1
  Hf  Hf3  1  0.42626125  0.17468508  -0.00103331  1
  Co  Co4  1  0.29618765  0.89088514  0.70846240  1
  Co  Co5  1  0.53167623  0.49527138  0.74691125  1
  Co  Co6  1  0.61237314  0.78418506  0.50942937  1
  Co  Co7  1  0.87252656  0.70520665  0.25344719  1
  Mn  Mn8  1  0.95414255  0.01942586  0.00913304  1
  Mn  Mn9  1  0.19645124  0.58248428  0.52268287  1
  Mn  Mn10  1  0.42946448  0.22281693  0.50350940  1
  Mn  Mn11  1  0.88413138  0.72709511  0.73815473  1
  Fe  Fe12  1  0.73113654  0.09750865  0.26000184  1
  Fe  Fe13  1  0.79254209  0.41974414  0.47933206  1
  Fe  Fe14  1  0.64607235  0.77618752  0.00157386  1
  Fe  Fe15  1  0.81264609  0.40998978  0.01921143  1
  Ni  Ni16  1  0.96969264  0.99512639  0.49779566  1
  Ni  Ni17  1  0.10584323  0.32237644  0.26116106  1
  Ni  Ni18  1  0.67331699  0.07677194  0.73618201  1
  Ni  Ni19  1  0.50694866  0.49077848  0.24899645  1
