# generated using pymatgen
data_ZrWC2
_symmetry_space_group_name_H-M   'P 1'
_cell_length_a   9.30888393
_cell_length_b   4.64177203
_cell_length_c   4.64177203
_cell_angle_alpha   90.00000000
_cell_angle_beta   90.00000000
_cell_angle_gamma   90.00000000
_symmetry_Int_Tables_number   1
_chemical_formula_structural   ZrWC2
_chemical_formula_sum   'Zr4 W4 C8'
_cell_volume   200.56965606
_cell_formula_units_Z   4
loop_
 _symmetry_equiv_pos_site_id
 _symmetry_equiv_pos_as_xyz
  1  'x, y, z'
loop_
 _atom_site_type_symbol
 _atom_site_label
 _atom_site_symmetry_multiplicity
 _atom_site_fract_x
 _atom_site_fract_y
 _atom_site_fract_z
 _atom_site_occupancy
  Zr  Zr0  1  0.00000000  0.00000000  0.00000000  1
  Zr  Zr1  1  0.00000000  0.50000000  0.50000000  1
  Zr  Zr2  1  0.25604943  0.00000000  0.50000000  1
  Zr  Zr3  1  0.74395057  0.50000000  -0.00000000  1
  W  W4  1  0.25251881  0.50000000  -0.00000000  1
  W  W5  1  0.50000000  -0.00000000  0.00000000  1
  W  W6  1  0.50000000  0.50000000  0.50000000  1
  W  W7  1  0.74748119  0.00000000  0.50000000  1
  C  C8  1  0.26118579  0.50000000  0.50000000  1
  C  C9  1  0.26118579  0.00000000  -0.00000000  1
  C  C10  1  0.00376485  0.50000000  0.00000000  1
  C  C11  1  0.99623515  0.00000000  0.50000000  1
  C  C12  1  0.73881421  0.50000000  0.50000000  1
  C  C13  1  0.73881421  0.00000000  0.00000000  1
  C  C14  1  0.49402276  0.50000000  0.00000000  1
  C  C15  1  0.50597724  0.00000000  0.50000000  1
