# generated using pymatgen
data_ZrWC2
_symmetry_space_group_name_H-M   'P 1'
_cell_length_a   9.36794521
_cell_length_b   4.66776462
_cell_length_c   4.66776462
_cell_angle_alpha   90.00000000
_cell_angle_beta   90.00000000
_cell_angle_gamma   90.00000000
_symmetry_Int_Tables_number   1
_chemical_formula_structural   ZrWC2
_chemical_formula_sum   'Zr4 W4 C8'
_cell_volume   204.10903893
_cell_formula_units_Z   4
loop_
 _symmetry_equiv_pos_site_id
 _symmetry_equiv_pos_as_xyz
  1  'x, y, z'
loop_
 _atom_site_type_symbol
 _atom_site_label
 _atom_site_symmetry_multiplicity
 _atom_site_fract_x
 _atom_site_fract_y
 _atom_site_fract_z
 _atom_site_occupancy
  Zr  Zr0  1  0.00000000  0.00000000  0.00000000  1
  Zr  Zr1  1  0.00000000  0.50000000  0.50000000  1
  Zr  Zr2  1  0.25676241  0.00000000  0.50000000  1
  Zr  Zr3  1  0.74323759  0.50000000  0.00000000  1
  W  W4  1  0.25446929  0.50000000  0.00000000  1
  W  W5  1  0.50000000  0.00000000  0.00000000  1
  W  W6  1  0.50000000  0.50000000  0.50000000  1
  W  W7  1  0.74553071  0.00000000  0.50000000  1
  C  C8  1  0.26169492  0.50000000  0.50000000  1
  C  C9  1  0.26169492  0.00000000  0.00000000  1
  C  C10  1  0.00314745  0.50000000  0.00000000  1
  C  C11  1  0.99685255  0.00000000  0.50000000  1
  C  C12  1  0.73830508  0.50000000  0.50000000  1
  C  C13  1  0.73830508  0.00000000  0.00000000  1
  C  C14  1  0.49401458  0.50000000  0.00000000  1
  C  C15  1  0.50598542  0.00000000  0.50000000  1
