# generated using pymatgen
data_ZrWC2
_symmetry_space_group_name_H-M   'P 1'
_cell_length_a   9.19162291
_cell_length_b   4.58278667
_cell_length_c   4.58278667
_cell_angle_alpha   90.00000000
_cell_angle_beta   90.00000000
_cell_angle_gamma   90.00000000
_symmetry_Int_Tables_number   1
_chemical_formula_structural   ZrWC2
_chemical_formula_sum   'Zr4 W4 C8'
_cell_volume   193.04185461
_cell_formula_units_Z   4
loop_
 _symmetry_equiv_pos_site_id
 _symmetry_equiv_pos_as_xyz
  1  'x, y, z'
loop_
 _atom_site_type_symbol
 _atom_site_label
 _atom_site_symmetry_multiplicity
 _atom_site_fract_x
 _atom_site_fract_y
 _atom_site_fract_z
 _atom_site_occupancy
  Zr  Zr0  1  0.00000000  0.00000000  0.00000000  1
  Zr  Zr1  1  0.00000000  0.50000000  0.50000000  1
  Zr  Zr2  1  0.25474106  0.00000000  0.50000000  1
  Zr  Zr3  1  0.74525894  0.50000000  0.00000000  1
  W  W4  1  0.25096888  0.50000000  0.00000000  1
  W  W5  1  0.50000000  0.00000000  0.00000000  1
  W  W6  1  0.50000000  0.50000000  0.50000000  1
  W  W7  1  0.74903112  0.00000000  0.50000000  1
  C  C8  1  0.26035015  0.50000000  0.50000000  1
  C  C9  1  0.26035015  0.00000000  0.00000000  1
  C  C10  1  0.00401067  0.50000000  0.00000000  1
  C  C11  1  0.99598933  0.00000000  0.50000000  1
  C  C12  1  0.73964985  0.50000000  0.50000000  1
  C  C13  1  0.73964985  0.00000000  0.00000000  1
  C  C14  1  0.49455286  0.50000000  0.00000000  1
  C  C15  1  0.50544714  0.00000000  0.50000000  1
