# generated using pymatgen
data_TiWC2
_symmetry_space_group_name_H-M   'P 1'
_cell_length_a   8.83476968
_cell_length_b   4.39550110
_cell_length_c   4.40022924
_cell_angle_alpha   90.00000000
_cell_angle_beta   90.00000000
_cell_angle_gamma   90.00000000
_symmetry_Int_Tables_number   1
_chemical_formula_structural   TiWC2
_chemical_formula_sum   'Ti4 W4 C8'
_cell_volume   170.87515746
_cell_formula_units_Z   4
loop_
 _symmetry_equiv_pos_site_id
 _symmetry_equiv_pos_as_xyz
  1  'x, y, z'
loop_
 _atom_site_type_symbol
 _atom_site_label
 _atom_site_symmetry_multiplicity
 _atom_site_fract_x
 _atom_site_fract_y
 _atom_site_fract_z
 _atom_site_occupancy
  Ti  Ti0  1  0.00392652  0.00000000  0.00000000  1
  Ti  Ti1  1  0.24946472  0.00000000  0.50000000  1
  Ti  Ti2  1  0.24779141  0.50000000  0.00000000  1
  Ti  Ti3  1  0.75128561  0.00000000  0.50000000  1
  W  W4  1  0.00723105  0.50000000  0.50000000  1
  W  W5  1  0.49590537  0.00000000  0.00000000  1
  W  W6  1  0.49117297  0.50000000  0.50000000  1
  W  W7  1  0.75359871  0.50000000  0.00000000  1
  C  C8  1  0.24983494  0.50000000  0.50000000  1
  C  C9  1  0.24972926  0.00000000  0.00000000  1
  C  C10  1  0.00126542  0.50000000  0.00000000  1
  C  C11  1  0.00033556  0.00000000  0.50000000  1
  C  C12  1  0.74842543  0.50000000  0.50000000  1
  C  C13  1  0.75235292  0.00000000  0.00000000  1
  C  C14  1  0.49745549  0.50000000  0.00000000  1
  C  C15  1  0.50022459  0.00000000  0.50000000  1
