# generated using pymatgen
data_TiWC2
_symmetry_space_group_name_H-M   'P 1'
_cell_length_a   8.65642183
_cell_length_b   4.30941881
_cell_length_c   4.31460680
_cell_angle_alpha   90.00000000
_cell_angle_beta   90.00000000
_cell_angle_gamma   90.00000000
_symmetry_Int_Tables_number   1
_chemical_formula_structural   TiWC2
_chemical_formula_sum   'Ti4 W4 C8'
_cell_volume   160.95272658
_cell_formula_units_Z   4
loop_
 _symmetry_equiv_pos_site_id
 _symmetry_equiv_pos_as_xyz
  1  'x, y, z'
loop_
 _atom_site_type_symbol
 _atom_site_label
 _atom_site_symmetry_multiplicity
 _atom_site_fract_x
 _atom_site_fract_y
 _atom_site_fract_z
 _atom_site_occupancy
  Ti  Ti0  1  0.00358035  0.00000000  0.00000000  1
  Ti  Ti1  1  0.24928988  0.00000000  0.50000000  1
  Ti  Ti2  1  0.24781483  0.50000000  0.00000000  1
  Ti  Ti3  1  0.75159445  0.00000000  0.50000000  1
  W  W4  1  0.00589511  0.50000000  0.50000000  1
  W  W5  1  0.49646984  0.00000000  0.00000000  1
  W  W6  1  0.49257506  0.50000000  0.50000000  1
  W  W7  1  0.75316843  0.50000000  0.00000000  1
  C  C8  1  0.24970898  0.50000000  0.50000000  1
  C  C9  1  0.24867983  0.00000000  0.00000000  1
  C  C10  1  0.00207795  0.50000000  0.00000000  1
  C  C11  1  -0.00001730  0.00000000  0.50000000  1
  C  C12  1  0.74853695  0.50000000  0.50000000  1
  C  C13  1  0.75306341  0.00000000  0.00000000  1
  C  C14  1  0.49684294  0.50000000  0.00000000  1
  C  C15  1  0.50071927  0.00000000  0.50000000  1
