# generated using pymatgen
data_TiWC2
_symmetry_space_group_name_H-M   'P 1'
_cell_length_a   9.00746954
_cell_length_b   4.47651662
_cell_length_c   4.48070840
_cell_angle_alpha   90.00000000
_cell_angle_beta   90.00000000
_cell_angle_gamma   90.00000000
_symmetry_Int_Tables_number   1
_chemical_formula_structural   TiWC2
_chemical_formula_sum   'Ti4 W4 C8'
_cell_volume   180.67151437
_cell_formula_units_Z   4
loop_
 _symmetry_equiv_pos_site_id
 _symmetry_equiv_pos_as_xyz
  1  'x, y, z'
loop_
 _atom_site_type_symbol
 _atom_site_label
 _atom_site_symmetry_multiplicity
 _atom_site_fract_x
 _atom_site_fract_y
 _atom_site_fract_z
 _atom_site_occupancy
  Ti  Ti0  1  0.00508192  0.00000000  0.00000000  1
  Ti  Ti1  1  0.24973046  0.00000000  0.50000000  1
  Ti  Ti2  1  0.24763202  0.50000000  0.00000000  1
  Ti  Ti3  1  0.75132645  0.00000000  0.50000000  1
  W  W4  1  0.00732278  0.50000000  0.50000000  1
  W  W5  1  0.49276585  0.00000000  0.00000000  1
  W  W6  1  0.49112259  0.50000000  0.50000000  1
  W  W7  1  0.75524167  0.50000000  0.00000000  1
  C  C8  1  0.24961701  0.50000000  0.50000000  1
  C  C9  1  0.25054434  0.00000000  0.00000000  1
  C  C10  1  0.00075474  0.50000000  0.00000000  1
  C  C11  1  0.00077812  0.00000000  0.50000000  1
  C  C12  1  0.74961747  0.50000000  0.50000000  1
  C  C13  1  0.75101076  0.00000000  0.00000000  1
  C  C14  1  0.49808610  0.50000000  0.00000000  1
  C  C15  1  0.49936768  0.00000000  0.50000000  1
