# generated using pymatgen
data_TiWC2
_symmetry_space_group_name_H-M   'P 1'
_cell_length_a   8.78102591
_cell_length_b   4.36972629
_cell_length_c   4.37461170
_cell_angle_alpha   90.00000000
_cell_angle_beta   90.00000000
_cell_angle_gamma   90.00000000
_symmetry_Int_Tables_number   1
_chemical_formula_structural   TiWC2
_chemical_formula_sum   'Ti4 W4 C8'
_cell_volume   167.85682467
_cell_formula_units_Z   4
loop_
 _symmetry_equiv_pos_site_id
 _symmetry_equiv_pos_as_xyz
  1  'x, y, z'
loop_
 _atom_site_type_symbol
 _atom_site_label
 _atom_site_symmetry_multiplicity
 _atom_site_fract_x
 _atom_site_fract_y
 _atom_site_fract_z
 _atom_site_occupancy
  Ti  Ti0  1  0.00382113  0.00000000  0.00000000  1
  Ti  Ti1  1  0.24942347  0.00000000  0.50000000  1
  Ti  Ti2  1  0.24781773  0.50000000  0.00000000  1
  Ti  Ti3  1  0.75137615  0.00000000  0.50000000  1
  W  W4  1  0.00670731  0.50000000  0.50000000  1
  W  W5  1  0.49614129  0.00000000  0.00000000  1
  W  W6  1  0.49167562  0.50000000  0.50000000  1
  W  W7  1  0.75345435  0.50000000  0.00000000  1
  C  C8  1  0.24982816  0.50000000  0.50000000  1
  C  C9  1  0.24940914  0.00000000  0.00000000  1
  C  C10  1  0.00146742  0.50000000  0.00000000  1
  C  C11  1  0.00025704  0.00000000  0.50000000  1
  C  C12  1  0.74843091  0.50000000  0.50000000  1
  C  C13  1  0.75259800  0.00000000  0.00000000  1
  C  C14  1  0.49723038  0.50000000  0.00000000  1
  C  C15  1  0.50036188  0.00000000  0.50000000  1
