# generated using pymatgen
data_TiWC2
_symmetry_space_group_name_H-M   'P 1'
_cell_length_a   8.89843580
_cell_length_b   4.42558418
_cell_length_c   4.42962366
_cell_angle_alpha   90.00000000
_cell_angle_beta   90.00000000
_cell_angle_gamma   90.00000000
_symmetry_Int_Tables_number   1
_chemical_formula_structural   TiWC2
_chemical_formula_sum   'Ti4 W4 C8'
_cell_volume   174.44202023
_cell_formula_units_Z   4
loop_
 _symmetry_equiv_pos_site_id
 _symmetry_equiv_pos_as_xyz
  1  'x, y, z'
loop_
 _atom_site_type_symbol
 _atom_site_label
 _atom_site_symmetry_multiplicity
 _atom_site_fract_x
 _atom_site_fract_y
 _atom_site_fract_z
 _atom_site_occupancy
  Ti  Ti0  1  0.00401541  0.00000000  0.00000000  1
  Ti  Ti1  1  0.24962031  0.00000000  0.50000000  1
  Ti  Ti2  1  0.24785268  0.50000000  0.00000000  1
  Ti  Ti3  1  0.75136339  0.00000000  0.50000000  1
  W  W4  1  0.00795309  0.50000000  0.50000000  1
  W  W5  1  0.49533069  0.00000000  0.00000000  1
  W  W6  1  0.49035316  0.50000000  0.50000000  1
  W  W7  1  0.75400639  0.50000000  0.00000000  1
  C  C8  1  0.24969516  0.50000000  0.50000000  1
  C  C9  1  0.25006464  0.00000000  0.00000000  1
  C  C10  1  0.00108377  0.50000000  0.00000000  1
  C  C11  1  0.00039764  0.00000000  0.50000000  1
  C  C12  1  0.74853283  0.50000000  0.50000000  1
  C  C13  1  0.75199801  0.00000000  0.00000000  1
  C  C14  1  0.49773685  0.50000000  0.00000000  1
  C  C15  1  0.49999595  0.00000000  0.50000000  1
