# generated using pymatgen
data_HfWC2
_symmetry_space_group_name_H-M   'P 1'
_cell_length_a   9.34175106
_cell_length_b   4.63008470
_cell_length_c   4.63008470
_cell_angle_alpha   90.00000000
_cell_angle_beta   90.00000000
_cell_angle_gamma   90.00000000
_symmetry_Int_Tables_number   1
_chemical_formula_structural   HfWC2
_chemical_formula_sum   'Hf4 W4 C8'
_cell_volume   200.26551031
_cell_formula_units_Z   4
loop_
 _symmetry_equiv_pos_site_id
 _symmetry_equiv_pos_as_xyz
  1  'x, y, z'
loop_
 _atom_site_type_symbol
 _atom_site_label
 _atom_site_symmetry_multiplicity
 _atom_site_fract_x
 _atom_site_fract_y
 _atom_site_fract_z
 _atom_site_occupancy
  Hf  Hf0  1  0.00000000  0.00000000  0.00000000  1
  Hf  Hf1  1  0.00000000  0.50000000  0.50000000  1
  Hf  Hf2  1  0.25529656  0.00000000  0.50000000  1
  Hf  Hf3  1  0.74470344  0.50000000  0.00000000  1
  W  W4  1  0.26090519  0.50000000  0.00000000  1
  W  W5  1  0.50000000  0.00000000  0.00000000  1
  W  W6  1  0.50000000  0.50000000  0.50000000  1
  W  W7  1  0.73909481  0.00000000  0.50000000  1
  C  C8  1  0.25900367  0.50000000  0.50000000  1
  C  C9  1  0.25900367  0.00000000  0.00000000  1
  C  C10  1  0.99698588  0.50000000  0.00000000  1
  C  C11  1  0.00301412  0.00000000  0.50000000  1
  C  C12  1  0.74099633  0.50000000  0.50000000  1
  C  C13  1  0.74099633  0.00000000  0.00000000  1
  C  C14  1  0.49794590  0.50000000  0.00000000  1
  C  C15  1  0.50205410  0.00000000  0.50000000  1
