# generated using pymatgen
data_HfWC2
_symmetry_space_group_name_H-M   'P 1'
_cell_length_a   9.14200542
_cell_length_b   4.55173495
_cell_length_c   4.55173495
_cell_angle_alpha   90.00000000
_cell_angle_beta   90.00000000
_cell_angle_gamma   90.00000000
_symmetry_Int_Tables_number   1
_chemical_formula_structural   HfWC2
_chemical_formula_sum   'Hf4 W4 C8'
_cell_volume   189.40672912
_cell_formula_units_Z   4
loop_
 _symmetry_equiv_pos_site_id
 _symmetry_equiv_pos_as_xyz
  1  'x, y, z'
loop_
 _atom_site_type_symbol
 _atom_site_label
 _atom_site_symmetry_multiplicity
 _atom_site_fract_x
 _atom_site_fract_y
 _atom_site_fract_z
 _atom_site_occupancy
  Hf  Hf0  1  0.00000000  0.00000000  -0.00000000  1
  Hf  Hf1  1  0.00000000  0.50000000  0.50000000  1
  Hf  Hf2  1  0.25326519  0.00000000  0.50000000  1
  Hf  Hf3  1  0.74673481  0.50000000  0.00000000  1
  W  W4  1  0.25420066  0.50000000  -0.00000000  1
  W  W5  1  0.50000000  0.00000000  -0.00000000  1
  W  W6  1  0.50000000  0.50000000  0.50000000  1
  W  W7  1  0.74579934  0.00000000  0.50000000  1
  C  C8  1  0.25771979  0.50000000  0.50000000  1
  C  C9  1  0.25771979  0.00000000  0.00000000  1
  C  C10  1  0.99980907  0.50000000  -0.00000000  1
  C  C11  1  0.00019093  0.00000000  0.50000000  1
  C  C12  1  0.74228021  0.50000000  0.50000000  1
  C  C13  1  0.74228021  0.00000000  0.00000000  1
  C  C14  1  0.49785448  0.50000000  0.00000000  1
  C  C15  1  0.50214552  0.00000000  0.50000000  1
