# generated using pymatgen
data_HfWC2
_symmetry_space_group_name_H-M   'P 1'
_cell_length_a   9.27218726
_cell_length_b   4.60694979
_cell_length_c   4.60694979
_cell_angle_alpha   90.00000000
_cell_angle_beta   90.00000000
_cell_angle_gamma   90.00000000
_symmetry_Int_Tables_number   1
_chemical_formula_structural   HfWC2
_chemical_formula_sum   'Hf4 W4 C8'
_cell_volume   196.79277600
_cell_formula_units_Z   4
loop_
 _symmetry_equiv_pos_site_id
 _symmetry_equiv_pos_as_xyz
  1  'x, y, z'
loop_
 _atom_site_type_symbol
 _atom_site_label
 _atom_site_symmetry_multiplicity
 _atom_site_fract_x
 _atom_site_fract_y
 _atom_site_fract_z
 _atom_site_occupancy
  Hf  Hf0  1  0.00000000  0.00000000  0.00000000  1
  Hf  Hf1  1  0.00000000  0.50000000  0.50000000  1
  Hf  Hf2  1  0.25452747  0.00000000  0.50000000  1
  Hf  Hf3  1  0.74547253  0.50000000  0.00000000  1
  W  W4  1  0.25776849  0.50000000  0.00000000  1
  W  W5  1  0.50000000  0.00000000  0.00000000  1
  W  W6  1  0.50000000  0.50000000  0.50000000  1
  W  W7  1  0.74223151  0.00000000  0.50000000  1
  C  C8  1  0.25849068  0.50000000  0.50000000  1
  C  C9  1  0.25849068  0.00000000  0.00000000  1
  C  C10  1  0.99838462  0.50000000  0.00000000  1
  C  C11  1  0.00161538  0.00000000  0.50000000  1
  C  C12  1  0.74150932  0.50000000  0.50000000  1
  C  C13  1  0.74150932  0.00000000  0.00000000  1
  C  C14  1  0.49782816  0.50000000  0.00000000  1
  C  C15  1  0.50217184  0.00000000  0.50000000  1
