# generated using pymatgen
data_HfWC2
_symmetry_space_group_name_H-M   'P 1'
_cell_length_a   9.21141427
_cell_length_b   4.58163656
_cell_length_c   4.58163656
_cell_angle_alpha   90.00000000
_cell_angle_beta   90.00000000
_cell_angle_gamma   90.00000000
_symmetry_Int_Tables_number   1
_chemical_formula_structural   HfWC2
_chemical_formula_sum   'Hf4 W4 C8'
_cell_volume   193.36042226
_cell_formula_units_Z   4
loop_
 _symmetry_equiv_pos_site_id
 _symmetry_equiv_pos_as_xyz
  1  'x, y, z'
loop_
 _atom_site_type_symbol
 _atom_site_label
 _atom_site_symmetry_multiplicity
 _atom_site_fract_x
 _atom_site_fract_y
 _atom_site_fract_z
 _atom_site_occupancy
  Hf  Hf0  1  0.00000000  0.00000000  0.00000000  1
  Hf  Hf1  1  0.00000000  0.50000000  0.50000000  1
  Hf  Hf2  1  0.25389272  0.00000000  0.50000000  1
  Hf  Hf3  1  0.74610728  0.50000000  0.00000000  1
  W  W4  1  0.25580518  0.50000000  0.00000000  1
  W  W5  1  0.50000000  0.00000000  0.00000000  1
  W  W6  1  0.50000000  0.50000000  0.50000000  1
  W  W7  1  0.74419482  0.00000000  0.50000000  1
  C  C8  1  0.25811149  0.50000000  0.50000000  1
  C  C9  1  0.25811149  0.00000000  0.00000000  1
  C  C10  1  0.99922502  0.50000000  0.00000000  1
  C  C11  1  0.00077498  0.00000000  0.50000000  1
  C  C12  1  0.74188851  0.50000000  0.50000000  1
  C  C13  1  0.74188851  0.00000000  0.00000000  1
  C  C14  1  0.49787977  0.50000000  0.00000000  1
  C  C15  1  0.50212023  0.00000000  0.50000000  1
