# generated using pymatgen
data_TiAlN2
_symmetry_space_group_name_H-M   'P 1'
_cell_length_a   5.35412057
_cell_length_b   5.22395370
_cell_length_c   6.03739023
_cell_angle_alpha   90.00031924
_cell_angle_beta   106.37278255
_cell_angle_gamma   99.28140659
_symmetry_Int_Tables_number   1
_chemical_formula_structural   TiAlN2
_chemical_formula_sum   'Ti4 Al4 N8'
_cell_volume   159.71053825
_cell_formula_units_Z   4
loop_
 _symmetry_equiv_pos_site_id
 _symmetry_equiv_pos_as_xyz
  1  'x, y, z'
loop_
 _atom_site_type_symbol
 _atom_site_label
 _atom_site_symmetry_multiplicity
 _atom_site_fract_x
 _atom_site_fract_y
 _atom_site_fract_z
 _atom_site_occupancy
  Ti  Ti0  1  0.50000000  0.75000000  0.62500000  1
  Ti  Ti1  1  0.50000000  0.75000000  0.12500000  1
  Ti  Ti2  1  0.50000000  0.25000000  0.37500000  1
  Ti  Ti3  1  0.50000000  0.25000000  0.87500000  1
  N  N4  1  0.76676615  0.62783055  0.44174139  1
  N  N5  1  0.23323385  0.37216945  0.05825861  1
  N  N6  1  0.76676615  0.62783055  0.94174139  1
  N  N7  1  0.23323385  0.37216945  0.55825861  1
  N  N8  1  0.23323385  0.87216945  0.30825861  1
  N  N9  1  0.76676615  0.12783055  0.19174139  1
  N  N10  1  0.23323385  0.87216945  0.80825861  1
  N  N11  1  0.76676615  0.12783055  0.69174139  1
  Al  Al12  1  0.00000000  0.50000000  0.25000000  1
  Al  Al13  1  0.00000000  0.50000000  0.75000000  1
  Al  Al14  1  0.00000000  0.00000000  0.50000000  1
  Al  Al15  1  0.00000000  0.00000000  0.00000000  1
