# generated using pymatgen
data_NbAlFeCoNi
_symmetry_space_group_name_H-M   'P 1'
_cell_length_a   5.63765937
_cell_length_b   5.89354270
_cell_length_c   7.74875553
_cell_angle_alpha   90.54029054
_cell_angle_beta   89.57473893
_cell_angle_gamma   89.87184814
_symmetry_Int_Tables_number   1
_chemical_formula_structural   NbAlFeCoNi
_chemical_formula_sum   'Nb4 Al4 Fe4 Co4 Ni4'
_cell_volume   257.43927169
_cell_formula_units_Z   4
loop_
 _symmetry_equiv_pos_site_id
 _symmetry_equiv_pos_as_xyz
  1  'x, y, z'
loop_
 _atom_site_type_symbol
 _atom_site_label
 _atom_site_symmetry_multiplicity
 _atom_site_fract_x
 _atom_site_fract_y
 _atom_site_fract_z
 _atom_site_occupancy
  Al  Al0  1  0.07840451  0.28177458  0.74145924  1
  Al  Al1  1  0.20395473  0.58248277  0.00944996  1
  Al  Al2  1  0.31848465  0.89882404  0.23989724  1
  Al  Al3  1  0.45099727  0.19681364  0.99866371  1
  Co  Co4  1  0.28173576  0.89071841  0.76528865  1
  Co  Co5  1  0.46609517  0.49353583  0.75240413  1
  Co  Co6  1  0.60901485  0.78861169  0.47800397  1
  Co  Co7  1  0.89900207  0.69914643  0.24862653  1
  Nb  Nb8  1  0.97069223  0.01672616  0.01524568  1
  Nb  Nb9  1  0.20720511  0.61584606  0.49642612  1
  Nb  Nb10  1  0.42521872  0.17879221  0.50283196  1
  Nb  Nb11  1  0.84815012  0.70241970  0.74534441  1
  Fe  Fe12  1  0.71414018  0.09802611  0.26563490  1
  Fe  Fe13  1  0.80694155  0.41206754  0.49273535  1
  Fe  Fe14  1  0.59295797  0.79282963  0.99974032  1
  Fe  Fe15  1  0.81058532  0.42526814  0.00438771  1
  Ni  Ni16  1  0.99854491  0.01023010  0.49392015  1
  Ni  Ni17  1  0.10733595  0.30288422  0.25122960  1
  Ni  Ni18  1  0.69213492  0.11666695  0.74927948  1
  Ni  Ni19  1  0.51840401  0.49633579  0.24943091  1
