# generated using pymatgen
data_Ti2CN
_symmetry_space_group_name_H-M   'P 1'
_cell_length_a   8.58681056
_cell_length_b   4.28705987
_cell_length_c   4.28705987
_cell_angle_alpha   90.00000000
_cell_angle_beta   90.00000000
_cell_angle_gamma   90.00000000
_symmetry_Int_Tables_number   1
_chemical_formula_structural   Ti2CN
_chemical_formula_sum   'Ti8 C4 N4'
_cell_volume   157.81598086
_cell_formula_units_Z   4
loop_
 _symmetry_equiv_pos_site_id
 _symmetry_equiv_pos_as_xyz
  1  'x, y, z'
loop_
 _atom_site_type_symbol
 _atom_site_label
 _atom_site_symmetry_multiplicity
 _atom_site_fract_x
 _atom_site_fract_y
 _atom_site_fract_z
 _atom_site_occupancy
  Ti  Ti0  1  0.00000000  -0.00000000  -0.00000000  1
  Ti  Ti1  1  0.00000000  0.50000000  0.50000000  1
  Ti  Ti2  1  0.25167976  -0.00000000  0.50000000  1
  Ti  Ti3  1  0.24832024  0.50000000  -0.00000000  1
  Ti  Ti4  1  0.50000000  -0.00000000  -0.00000000  1
  Ti  Ti5  1  0.50000000  0.50000000  0.50000000  1
  Ti  Ti6  1  0.74832024  -0.00000000  0.50000000  1
  Ti  Ti7  1  0.75167976  0.50000000  -0.00000000  1
  C  C8  1  0.25000000  0.50000000  0.50000000  1
  C  C9  1  0.00000000  0.50000000  -0.00000000  1
  C  C10  1  0.75000000  0.50000000  0.50000000  1
  C  C11  1  0.50000000  -0.00000000  0.50000000  1
  N  N12  1  0.25000000  -0.00000000  -0.00000000  1
  N  N13  1  0.00000000  -0.00000000  0.50000000  1
  N  N14  1  0.75000000  -0.00000000  -0.00000000  1
  N  N15  1  0.50000000  0.50000000  -0.00000000  1
