# generated using pymatgen
data_TiAlN2
_symmetry_space_group_name_H-M   'P 1'
_cell_length_a   5.25726187
_cell_length_b   5.12607220
_cell_length_c   5.92522439
_cell_angle_alpha   90.00239522
_cell_angle_beta   106.35902606
_cell_angle_gamma   99.24714886
_symmetry_Int_Tables_number   1
_chemical_formula_structural   TiAlN2
_chemical_formula_sum   'Ti4 Al4 N8'
_cell_volume   151.05072641
_cell_formula_units_Z   4
loop_
 _symmetry_equiv_pos_site_id
 _symmetry_equiv_pos_as_xyz
  1  'x, y, z'
loop_
 _atom_site_type_symbol
 _atom_site_label
 _atom_site_symmetry_multiplicity
 _atom_site_fract_x
 _atom_site_fract_y
 _atom_site_fract_z
 _atom_site_occupancy
  Ti  Ti0  1  0.50000000  0.75000000  0.62500000  1
  Ti  Ti1  1  0.50000000  0.75000000  0.12500000  1
  Ti  Ti2  1  0.50000000  0.25000000  0.37500000  1
  Ti  Ti3  1  0.50000000  0.25000000  0.87500000  1
  N  N4  1  0.76732392  0.62800535  0.44187163  1
  N  N5  1  0.23267608  0.37199465  0.05812837  1
  N  N6  1  0.76732392  0.62800535  0.94187163  1
  N  N7  1  0.23267608  0.37199465  0.55812837  1
  N  N8  1  0.23267608  0.87199465  0.30812837  1
  N  N9  1  0.76732392  0.12800535  0.19187163  1
  N  N10  1  0.23267608  0.87199465  0.80812837  1
  N  N11  1  0.76732392  0.12800535  0.69187163  1
  Al  Al12  1  0.00000000  0.50000000  0.25000000  1
  Al  Al13  1  0.00000000  0.50000000  0.75000000  1
  Al  Al14  1  0.00000000  0.00000000  0.50000000  1
  Al  Al15  1  0.00000000  0.00000000  0.00000000  1
