# generated using pymatgen
data_ZrTiCN
_symmetry_space_group_name_H-M   'P 1'
_cell_length_a   9.23553425
_cell_length_b   4.62643331
_cell_length_c   4.60821087
_cell_angle_alpha   90.00000000
_cell_angle_beta   90.00000000
_cell_angle_gamma   90.00000000
_symmetry_Int_Tables_number   1
_chemical_formula_structural   ZrTiCN
_chemical_formula_sum   'Zr4 Ti4 C4 N4'
_cell_volume   196.89771377
_cell_formula_units_Z   4
loop_
 _symmetry_equiv_pos_site_id
 _symmetry_equiv_pos_as_xyz
  1  'x, y, z'
loop_
 _atom_site_type_symbol
 _atom_site_label
 _atom_site_symmetry_multiplicity
 _atom_site_fract_x
 _atom_site_fract_y
 _atom_site_fract_z
 _atom_site_occupancy
  Zr  Zr0  1  0.00413726  0.00000000  0.00000000  1
  Zr  Zr1  1  0.00583290  0.50000000  0.50000000  1
  Zr  Zr2  1  0.49546891  0.00000000  0.00000000  1
  Zr  Zr3  1  0.74217681  0.50000000  0.00000000  1
  Ti  Ti4  1  0.25062804  0.00000000  0.50000000  1
  Ti  Ti5  1  0.26186879  0.50000000  0.00000000  1
  Ti  Ti6  1  0.49169295  0.50000000  0.50000000  1
  Ti  Ti7  1  0.75083963  0.00000000  0.50000000  1
  C  C8  1  0.25853905  0.50000000  0.50000000  1
  C  C9  1  0.00706861  0.00000000  0.50000000  1
  C  C10  1  0.74121470  0.50000000  0.50000000  1
  C  C11  1  0.74704028  0.00000000  0.00000000  1
  N  N12  1  0.25280538  0.00000000  0.00000000  1
  N  N13  1  0.00637423  0.50000000  0.00000000  1
  N  N14  1  0.49189880  0.50000000  0.00000000  1
  N  N15  1  0.49241365  0.00000000  0.50000000  1
