# generated using pymatgen
data_ZrTiCN
_symmetry_space_group_name_H-M   'P 1'
_cell_length_a   8.92070857
_cell_length_b   4.47819452
_cell_length_c   4.46831756
_cell_angle_alpha   90.00000000
_cell_angle_beta   90.00000000
_cell_angle_gamma   90.00000000
_symmetry_Int_Tables_number   1
_chemical_formula_structural   ZrTiCN
_chemical_formula_sum   'Zr4 Ti4 C4 N4'
_cell_volume   178.50333576
_cell_formula_units_Z   4
loop_
 _symmetry_equiv_pos_site_id
 _symmetry_equiv_pos_as_xyz
  1  'x, y, z'
loop_
 _atom_site_type_symbol
 _atom_site_label
 _atom_site_symmetry_multiplicity
 _atom_site_fract_x
 _atom_site_fract_y
 _atom_site_fract_z
 _atom_site_occupancy
  Zr  Zr0  1  0.00432934  0.00000000  0.00000000  1
  Zr  Zr1  1  0.00389542  0.50000000  0.50000000  1
  Zr  Zr2  1  0.49620051  0.00000000  0.00000000  1
  Zr  Zr3  1  0.74534675  0.50000000  0.00000000  1
  Ti  Ti4  1  0.25101107  0.00000000  0.50000000  1
  Ti  Ti5  1  0.25572662  0.50000000  0.00000000  1
  Ti  Ti6  1  0.49580807  0.50000000  0.50000000  1
  Ti  Ti7  1  0.74826715  0.00000000  0.50000000  1
  C  C8  1  0.25831347  0.50000000  0.50000000  1
  C  C9  1  0.00532998  0.00000000  0.50000000  1
  C  C10  1  0.74057033  0.50000000  0.50000000  1
  C  C11  1  0.74745207  0.00000000  0.00000000  1
  N  N12  1  0.25197874  0.00000000  0.00000000  1
  N  N13  1  0.00823842  0.50000000  0.00000000  1
  N  N14  1  0.49197999  0.50000000  0.00000000  1
  N  N15  1  0.49555209  0.00000000  0.50000000  1
