# generated using pymatgen
data_HfTiCN
_symmetry_space_group_name_H-M   'P 1'
_cell_length_a   9.21594522
_cell_length_b   4.59624777
_cell_length_c   4.52427581
_cell_angle_alpha   90.00000000
_cell_angle_beta   90.00000000
_cell_angle_gamma   90.00000000
_symmetry_Int_Tables_number   1
_chemical_formula_structural   HfTiCN
_chemical_formula_sum   'Hf4 Ti4 C4 N4'
_cell_volume   191.64274789
_cell_formula_units_Z   4
loop_
 _symmetry_equiv_pos_site_id
 _symmetry_equiv_pos_as_xyz
  1  'x, y, z'
loop_
 _atom_site_type_symbol
 _atom_site_label
 _atom_site_symmetry_multiplicity
 _atom_site_fract_x
 _atom_site_fract_y
 _atom_site_fract_z
 _atom_site_occupancy
  Ti  Ti0  1  0.98595573  0.00000000  0.00000000  1
  Ti  Ti1  1  0.25465828  0.50000000  0.00000000  1
  Ti  Ti2  1  0.51245974  0.00000000  0.00000000  1
  Ti  Ti3  1  0.75161646  0.00000000  0.50000000  1
  Hf  Hf4  1  0.99911783  0.50000000  0.50000000  1
  Hf  Hf5  1  0.24816736  0.00000000  0.50000000  1
  Hf  Hf6  1  0.49999134  0.50000000  0.50000000  1
  Hf  Hf7  1  0.74923521  0.50000000  0.00000000  1
  C  C8  1  0.25147591  0.50000000  0.50000000  1
  C  C9  1  0.99821197  0.00000000  0.50000000  1
  C  C10  1  0.74809195  0.50000000  0.50000000  1
  C  C11  1  0.74830137  0.00000000  0.00000000  1
  N  N12  1  0.25546299  0.00000000  0.00000000  1
  N  N13  1  0.00001368  0.50000000  0.00000000  1
  N  N14  1  0.49784205  0.50000000  0.00000000  1
  N  N15  1  0.49939812  0.00000000  0.50000000  1
