# generated using pymatgen
data_HfTiCN
_symmetry_space_group_name_H-M   'P 1'
_cell_length_a   8.94849211
_cell_length_b   4.47929013
_cell_length_c   4.42681379
_cell_angle_alpha   90.00000000
_cell_angle_beta   90.00000000
_cell_angle_gamma   90.00000000
_symmetry_Int_Tables_number   1
_chemical_formula_structural   HfTiCN
_chemical_formula_sum   'Hf4 Ti4 C4 N4'
_cell_volume   177.43950076
_cell_formula_units_Z   4
loop_
 _symmetry_equiv_pos_site_id
 _symmetry_equiv_pos_as_xyz
  1  'x, y, z'
loop_
 _atom_site_type_symbol
 _atom_site_label
 _atom_site_symmetry_multiplicity
 _atom_site_fract_x
 _atom_site_fract_y
 _atom_site_fract_z
 _atom_site_occupancy
  Ti  Ti0  1  0.99269420  0.00000000  0.00000000  1
  Ti  Ti1  1  0.24961832  0.50000000  0.00000000  1
  Ti  Ti2  1  0.50880441  0.00000000  0.00000000  1
  Ti  Ti3  1  0.75157977  0.00000000  0.50000000  1
  Hf  Hf4  1  0.99930173  0.50000000  0.50000000  1
  Hf  Hf5  1  0.24827548  0.00000000  0.50000000  1
  Hf  Hf6  1  0.50019466  0.50000000  0.50000000  1
  Hf  Hf7  1  0.75058428  0.50000000  0.00000000  1
  C  C8  1  0.25087812  0.50000000  0.50000000  1
  C  C9  1  0.99694825  0.00000000  0.50000000  1
  C  C10  1  0.74855270  0.50000000  0.50000000  1
  C  C11  1  0.74818985  0.00000000  0.00000000  1
  N  N12  1  0.25349433  0.00000000  0.00000000  1
  N  N13  1  0.00347784  0.50000000  0.00000000  1
  N  N14  1  0.49662494  0.50000000  0.00000000  1
  N  N15  1  0.50078112  0.00000000  0.50000000  1
