# generated using pymatgen
data_HfTiCN
_symmetry_space_group_name_H-M   'P 1'
_cell_length_a   8.81357069
_cell_length_b   4.41530767
_cell_length_c   4.37087299
_cell_angle_alpha   90.00000000
_cell_angle_beta   90.00000000
_cell_angle_gamma   90.00000000
_symmetry_Int_Tables_number   1
_chemical_formula_structural   HfTiCN
_chemical_formula_sum   'Hf4 Ti4 C4 N4'
_cell_volume   170.09088887
_cell_formula_units_Z   4
loop_
 _symmetry_equiv_pos_site_id
 _symmetry_equiv_pos_as_xyz
  1  'x, y, z'
loop_
 _atom_site_type_symbol
 _atom_site_label
 _atom_site_symmetry_multiplicity
 _atom_site_fract_x
 _atom_site_fract_y
 _atom_site_fract_z
 _atom_site_occupancy
  Ti  Ti0  1  0.99417505  0.00000000  0.00000000  1
  Ti  Ti1  1  0.24950000  0.50000000  0.00000000  1
  Ti  Ti2  1  0.50743536  0.00000000  0.00000000  1
  Ti  Ti3  1  0.75108237  0.00000000  0.50000000  1
  Hf  Hf4  1  0.99937751  0.50000000  0.50000000  1
  Hf  Hf5  1  0.24862263  0.00000000  0.50000000  1
  Hf  Hf6  1  0.50016235  0.50000000  0.50000000  1
  Hf  Hf7  1  0.75067663  0.50000000  0.00000000  1
  C  C8  1  0.25080776  0.50000000  0.50000000  1
  C  C9  1  0.99656025  0.00000000  0.50000000  1
  C  C10  1  0.74860795  0.50000000  0.50000000  1
  C  C11  1  0.74816075  0.00000000  0.00000000  1
  N  N12  1  0.25317849  0.00000000  0.00000000  1
  N  N13  1  0.00435843  0.50000000  0.00000000  1
  N  N14  1  0.49592949  0.50000000  0.00000000  1
  N  N15  1  0.50136497  0.00000000  0.50000000  1
