# generated using pymatgen
data_MnZnFeCoNi
_symmetry_space_group_name_H-M   'P 1'
_cell_length_a   5.59323111
_cell_length_b   5.56717177
_cell_length_c   7.20665848
_cell_angle_alpha   90.23168151
_cell_angle_beta   89.72310146
_cell_angle_gamma   89.74866764
_symmetry_Int_Tables_number   1
_chemical_formula_structural   MnZnFeCoNi
_chemical_formula_sum   'Mn4 Zn4 Fe4 Co4 Ni4'
_cell_volume   224.39774549
_cell_formula_units_Z   4
loop_
 _symmetry_equiv_pos_site_id
 _symmetry_equiv_pos_as_xyz
  1  'x, y, z'
loop_
 _atom_site_type_symbol
 _atom_site_label
 _atom_site_symmetry_multiplicity
 _atom_site_fract_x
 _atom_site_fract_y
 _atom_site_fract_z
 _atom_site_occupancy
  Zn  Zn0  1  0.08985005  0.28889673  0.74878349  1
  Zn  Zn1  1  0.20051374  0.60657336  0.00158432  1
  Zn  Zn2  1  0.29768535  0.90118917  0.25453358  1
  Zn  Zn3  1  0.40792100  0.19059585  0.99994320  1
  Co  Co4  1  0.30063979  0.88742140  0.74098706  1
  Co  Co5  1  0.52032018  0.50839161  0.74135155  1
  Co  Co6  1  0.59817802  0.79552420  0.49796250  1
  Co  Co7  1  0.88507393  0.70275349  0.25599210  1
  Mn  Mn8  1  0.95592428  0.01138065  0.00299850  1
  Mn  Mn9  1  0.21245331  0.58428048  0.50928015  1
  Mn  Mn10  1  0.40830755  0.22104282  0.50296103  1
  Mn  Mn11  1  0.89583585  0.71094945  0.74095226  1
  Fe  Fe12  1  0.71526215  0.09806326  0.26592498  1
  Fe  Fe13  1  0.79023567  0.40706286  0.49183801  1
  Fe  Fe14  1  0.62909739  0.78901817  0.99454359  1
  Fe  Fe15  1  0.80245259  0.39845468  0.00644724  1
  Ni  Ni16  1  0.00008804  0.00009692  0.49754822  1
  Ni  Ni17  1  0.09509625  0.30547720  0.25627877  1
  Ni  Ni18  1  0.68774212  0.09576341  0.74078917  1
  Ni  Ni19  1  0.50732276  0.49706429  0.24930026  1
