# generated using pymatgen
data_Ti2AlO
_symmetry_space_group_name_H-M   'P 1'
_cell_length_a   3.05817028
_cell_length_b   3.05817026
_cell_length_c   14.40652070
_cell_angle_alpha   90.00000000
_cell_angle_beta   90.00000000
_cell_angle_gamma   119.99991601
_symmetry_Int_Tables_number   1
_chemical_formula_structural   Ti2AlO
_chemical_formula_sum   'Ti4 Al2 O2'
_cell_volume   116.68457038
_cell_formula_units_Z   2
loop_
 _symmetry_equiv_pos_site_id
 _symmetry_equiv_pos_as_xyz
  1  'x, y, z'
loop_
 _atom_site_type_symbol
 _atom_site_label
 _atom_site_symmetry_multiplicity
 _atom_site_fract_x
 _atom_site_fract_y
 _atom_site_fract_z
 _atom_site_occupancy
  Ti  Ti0  1  0.33333163  0.66666837  0.09025843  1
  Ti  Ti1  1  0.66666837  0.33333163  0.59025843  1
  Ti  Ti2  1  0.66666837  0.33333163  0.90974157  1
  Ti  Ti3  1  0.33333163  0.66666837  0.40974157  1
  Al  Al4  1  0.33333207  0.66666793  0.75000000  1
  Al  Al5  1  0.66666793  0.33333207  0.25000000  1
  O  O6  1  -0.00000000  0.00000000  0.00000000  1
  O  O7  1  0.00000000  0.00000000  0.50000000  1
