# generated using pymatgen
data_Ti3AlO2
_symmetry_space_group_name_H-M   'P 1'
_cell_length_a   2.91324941
_cell_length_b   2.91323734
_cell_length_c   19.52452194
_cell_angle_alpha   89.99271307
_cell_angle_beta   89.99827657
_cell_angle_gamma   120.00059912
_symmetry_Int_Tables_number   1
_chemical_formula_structural   Ti3AlO2
_chemical_formula_sum   'Ti6 Al2 O4'
_cell_volume   143.50331953
_cell_formula_units_Z   2
loop_
 _symmetry_equiv_pos_site_id
 _symmetry_equiv_pos_as_xyz
  1  'x, y, z'
loop_
 _atom_site_type_symbol
 _atom_site_label
 _atom_site_symmetry_multiplicity
 _atom_site_fract_x
 _atom_site_fract_y
 _atom_site_fract_z
 _atom_site_occupancy
  Ti  Ti0  1  0.33331377  0.66663496  0.86422667  1
  Ti  Ti1  1  0.66664670  0.33330487  0.36423458  1
  Ti  Ti2  1  0.66668623  0.33336504  0.13577333  1
  Ti  Ti3  1  0.33335330  0.66669513  0.63576542  1
  Ti  Ti4  1  0.00000000  0.00000000  0.00000000  1
  Ti  Ti5  1  0.00000000  0.00000000  0.50000000  1
  Al  Al6  1  -0.00000047  0.00000249  0.25000149  1
  Al  Al7  1  0.00000047  -0.00000249  0.74999851  1
  O  O8  1  0.33332665  0.66665797  0.43161686  1
  O  O9  1  0.66666021  0.33332202  0.93161863  1
  O  O10  1  0.66667335  0.33334203  0.56838314  1
  O  O11  1  0.33333979  0.66667798  0.06838137  1
