# generated using pymatgen
data_ZrTi7N8
_symmetry_space_group_name_H-M   'P 1'
_cell_length_a   8.65106257
_cell_length_b   4.34570139
_cell_length_c   4.34570139
_cell_angle_alpha   90.00000000
_cell_angle_beta   90.00000000
_cell_angle_gamma   90.00000000
_symmetry_Int_Tables_number   1
_chemical_formula_structural   ZrTi7N8
_chemical_formula_sum   'Zr1 Ti7 N8'
_cell_volume   163.37635970
_cell_formula_units_Z   1
loop_
 _symmetry_equiv_pos_site_id
 _symmetry_equiv_pos_as_xyz
  1  'x, y, z'
loop_
 _atom_site_type_symbol
 _atom_site_label
 _atom_site_symmetry_multiplicity
 _atom_site_fract_x
 _atom_site_fract_y
 _atom_site_fract_z
 _atom_site_occupancy
  Ti  Ti0  1  0.00693030  0.00000000  0.00000000  1
  Ti  Ti1  1  0.00693030  0.50000000  0.50000000  1
  Ti  Ti2  1  0.25000000  0.00000000  0.50000000  1
  Ti  Ti3  1  0.25000000  0.50000000  0.00000000  1
  Ti  Ti4  1  0.49306970  0.00000000  0.00000000  1
  Ti  Ti5  1  0.49306970  0.50000000  0.50000000  1
  Ti  Ti6  1  0.75000000  0.00000000  0.50000000  1
  N  N7  1  0.25000000  0.50000000  0.50000000  1
  N  N8  1  0.25000000  0.00000000  0.00000000  1
  N  N9  1  0.00724191  0.50000000  0.00000000  1
  N  N10  1  0.00157391  0.00000000  0.50000000  1
  N  N11  1  0.75000000  0.50000000  0.50000000  1
  N  N12  1  0.75000000  0.00000000  0.00000000  1
  N  N13  1  0.49275809  0.50000000  0.00000000  1
  N  N14  1  0.49842609  0.00000000  0.50000000  1
  Zr  Zr15  1  0.75000000  0.50000000  0.00000000  1
