# generated using pymatgen
data_Ti2AlO
_symmetry_space_group_name_H-M   'P 1'
_cell_length_a   3.04532101
_cell_length_b   3.04532102
_cell_length_c   14.36405377
_cell_angle_alpha   90.00000000
_cell_angle_beta   90.00000000
_cell_angle_gamma   120.00001564
_symmetry_Int_Tables_number   1
_chemical_formula_structural   Ti2AlO
_chemical_formula_sum   'Ti4 Al2 O2'
_cell_volume   115.36491337
_cell_formula_units_Z   2
loop_
 _symmetry_equiv_pos_site_id
 _symmetry_equiv_pos_as_xyz
  1  'x, y, z'
loop_
 _atom_site_type_symbol
 _atom_site_label
 _atom_site_symmetry_multiplicity
 _atom_site_fract_x
 _atom_site_fract_y
 _atom_site_fract_z
 _atom_site_occupancy
  Ti  Ti0  1  0.33333154  0.66666846  0.09054177  1
  Ti  Ti1  1  0.66666846  0.33333154  0.59054177  1
  Ti  Ti2  1  0.66666846  0.33333154  0.90945823  1
  Ti  Ti3  1  0.33333154  0.66666846  0.40945823  1
  Al  Al4  1  0.33333204  0.66666796  0.75000000  1
  Al  Al5  1  0.66666796  0.33333204  0.25000000  1
  O  O6  1  0.00000000  0.00000000  -0.00000000  1
  O  O7  1  0.00000000  0.00000000  0.50000000  1
