# generated using pymatgen
data_Ti2AlN
_symmetry_space_group_name_H-M   'P 1'
_cell_length_a   3.00124881
_cell_length_b   3.00124881
_cell_length_c   13.66506242
_cell_angle_alpha   90.00000000
_cell_angle_beta   90.00000000
_cell_angle_gamma   119.99999549
_symmetry_Int_Tables_number   1
_chemical_formula_structural   Ti2AlN
_chemical_formula_sum   'Ti4 Al2 N2'
_cell_volume   106.59731676
_cell_formula_units_Z   2
loop_
 _symmetry_equiv_pos_site_id
 _symmetry_equiv_pos_as_xyz
  1  'x, y, z'
loop_
 _atom_site_type_symbol
 _atom_site_label
 _atom_site_symmetry_multiplicity
 _atom_site_fract_x
 _atom_site_fract_y
 _atom_site_fract_z
 _atom_site_occupancy
  Ti  Ti0  1  0.33333351  0.66666649  0.08510964  1
  Ti  Ti1  1  0.66666649  0.33333351  0.58510964  1
  Ti  Ti2  1  0.66666649  0.33333351  0.91489036  1
  Ti  Ti3  1  0.33333351  0.66666649  0.41489036  1
  Al  Al4  1  0.33333180  0.66666820  0.75000000  1
  Al  Al5  1  0.66666820  0.33333180  0.25000000  1
  N  N6  1  -0.00000000  -0.00000000  0.00000000  1
  N  N7  1  -0.00000000  -0.00000000  0.50000000  1
