# generated using pymatgen
data_Ti8Al4CO3
_symmetry_space_group_name_H-M   'P 1'
_cell_length_a   5.99083506
_cell_length_b   5.99053870
_cell_length_c   13.77247938
_cell_angle_alpha   90.00000000
_cell_angle_beta   90.00000000
_cell_angle_gamma   120.00166005
_symmetry_Int_Tables_number   1
_chemical_formula_structural   Ti8Al4CO3
_chemical_formula_sum   'Ti16 Al8 C2 O6'
_cell_volume   428.04431977
_cell_formula_units_Z   2
loop_
 _symmetry_equiv_pos_site_id
 _symmetry_equiv_pos_as_xyz
  1  'x, y, z'
loop_
 _atom_site_type_symbol
 _atom_site_label
 _atom_site_symmetry_multiplicity
 _atom_site_fract_x
 _atom_site_fract_y
 _atom_site_fract_z
 _atom_site_occupancy
  Ti  Ti0  1  0.16478991  0.33528303  0.08818478  1
  Ti  Ti1  1  0.33525491  0.17050876  0.58799232  1
  Ti  Ti2  1  0.33331059  0.16661675  0.90941390  1
  Ti  Ti3  1  0.17049195  0.33528330  0.41181520  1
  Ti  Ti4  1  0.16474509  0.82949124  0.08799232  1
  Ti  Ti5  1  0.33521009  0.66471697  0.58818478  1
  Ti  Ti6  1  0.32950805  0.66471670  0.91181520  1
  Ti  Ti7  1  0.16668941  0.83338325  0.40941390  1
  Ti  Ti8  1  0.67049195  0.33528330  0.08818480  1
  Ti  Ti9  1  0.83331059  0.16661675  0.59058610  1
  Ti  Ti10  1  0.83525491  0.17050876  0.91200768  1
  Ti  Ti11  1  0.66478991  0.33528303  0.41181522  1
  Ti  Ti12  1  0.66668941  0.83338325  0.09058610  1
  Ti  Ti13  1  0.82950805  0.66471670  0.58818480  1
  Ti  Ti14  1  0.83521009  0.66471697  0.91181522  1
  Ti  Ti15  1  0.66474509  0.82949124  0.41200768  1
  Al  Al16  1  0.16667380  0.33335030  0.75000018  1
  Al  Al17  1  0.33331089  0.16662700  0.25002874  1
  Al  Al18  1  0.16668911  0.83337300  0.75002874  1
  Al  Al19  1  0.33332620  0.66664970  0.25000018  1
  Al  Al20  1  0.66667380  0.33335030  0.74999982  1
  Al  Al21  1  0.83331089  0.16662700  0.24997126  1
  Al  Al22  1  0.66668911  0.83337300  0.74997126  1
  Al  Al23  1  0.83332620  0.66664970  0.24999982  1
  O  O24  1  0.00000000  0.00000000  0.00000000  1
  O  O25  1  0.00000000  0.00000000  0.50000000  1
  O  O26  1  0.00000000  0.50000000  0.50000000  1
  O  O27  1  0.50000000  0.00000000  0.00000000  1
  O  O28  1  0.50000000  0.00000000  0.50000000  1
  O  O29  1  0.50000000  0.50000000  0.00000000  1
  C  C30  1  0.00000000  0.50000000  0.00000000  1
  C  C31  1  0.50000000  0.50000000  0.50000000  1
