# generated using pymatgen
data_Ti8Al4CO3
_symmetry_space_group_name_H-M   'P 1'
_cell_length_a   6.00186144
_cell_length_b   6.00155054
_cell_length_c   13.79432923
_cell_angle_alpha   90.00000000
_cell_angle_beta   90.00000000
_cell_angle_gamma   120.00174824
_symmetry_Int_Tables_number   1
_chemical_formula_structural   Ti8Al4CO3
_chemical_formula_sum   'Ti16 Al8 C2 O6'
_cell_volume   430.30163957
_cell_formula_units_Z   2
loop_
 _symmetry_equiv_pos_site_id
 _symmetry_equiv_pos_as_xyz
  1  'x, y, z'
loop_
 _atom_site_type_symbol
 _atom_site_label
 _atom_site_symmetry_multiplicity
 _atom_site_fract_x
 _atom_site_fract_y
 _atom_site_fract_z
 _atom_site_occupancy
  Ti  Ti0  1  0.16474852  0.33532768  0.08806065  1
  Ti  Ti1  1  0.33529771  0.17059478  0.58787027  1
  Ti  Ti2  1  0.33330680  0.16661817  0.90950997  1
  Ti  Ti3  1  0.17057774  0.33532809  0.41194014  1
  Ti  Ti4  1  0.16470229  0.82940522  0.08787027  1
  Ti  Ti5  1  0.33525148  0.66467232  0.58806065  1
  Ti  Ti6  1  0.32942226  0.66467191  0.91194014  1
  Ti  Ti7  1  0.16669320  0.83338183  0.40950997  1
  Ti  Ti8  1  0.67057774  0.33532809  0.08805986  1
  Ti  Ti9  1  0.83330680  0.16661817  0.59049003  1
  Ti  Ti10  1  0.83529771  0.17059478  0.91212973  1
  Ti  Ti11  1  0.66474852  0.33532768  0.41193935  1
  Ti  Ti12  1  0.66669320  0.83338183  0.09049003  1
  Ti  Ti13  1  0.82942226  0.66467191  0.58805986  1
  Ti  Ti14  1  0.83525148  0.66467232  0.91193935  1
  Ti  Ti15  1  0.66470229  0.82940522  0.41212973  1
  Al  Al16  1  0.16666968  0.33334284  0.74999940  1
  Al  Al17  1  0.33330703  0.16661871  0.25003125  1
  Al  Al18  1  0.16669297  0.83338129  0.75003125  1
  Al  Al19  1  0.33333032  0.66665716  0.24999940  1
  Al  Al20  1  0.66666968  0.33334284  0.75000060  1
  Al  Al21  1  0.83330703  0.16661871  0.24996875  1
  Al  Al22  1  0.66669297  0.83338129  0.74996875  1
  Al  Al23  1  0.83333032  0.66665716  0.25000060  1
  O  O24  1  -0.00000000  0.00000000  -0.00000000  1
  O  O25  1  -0.00000000  0.00000000  0.50000000  1
  O  O26  1  -0.00000000  0.50000000  0.50000000  1
  O  O27  1  0.50000000  0.00000000  -0.00000000  1
  O  O28  1  0.50000000  0.00000000  0.50000000  1
  O  O29  1  0.50000000  0.50000000  -0.00000000  1
  C  C30  1  -0.00000000  0.50000000  -0.00000000  1
  C  C31  1  0.50000000  0.50000000  0.50000000  1
