# generated using pymatgen
data_Ti8Al4CO3
_symmetry_space_group_name_H-M   'P 1'
_cell_length_a   6.01863276
_cell_length_b   6.01829256
_cell_length_c   13.82810657
_cell_angle_alpha   90.00000000
_cell_angle_beta   90.00000000
_cell_angle_gamma   120.00189700
_symmetry_Int_Tables_number   1
_chemical_formula_structural   Ti8Al4CO3
_chemical_formula_sum   'Ti16 Al8 C2 O6'
_cell_volume   433.76667942
_cell_formula_units_Z   2
loop_
 _symmetry_equiv_pos_site_id
 _symmetry_equiv_pos_as_xyz
  1  'x, y, z'
loop_
 _atom_site_type_symbol
 _atom_site_label
 _atom_site_symmetry_multiplicity
 _atom_site_fract_x
 _atom_site_fract_y
 _atom_site_fract_z
 _atom_site_occupancy
  Ti  Ti0  1  0.16468603  0.33539493  0.08786701  1
  Ti  Ti1  1  0.33536389  0.17073007  0.58768291  1
  Ti  Ti2  1  0.33331297  0.16662166  0.90965754  1
  Ti  Ti3  1  0.17070851  0.33539458  0.41213174  1
  Ti  Ti4  1  0.16463611  0.82926993  0.08768291  1
  Ti  Ti5  1  0.33531397  0.66460507  0.58786701  1
  Ti  Ti6  1  0.32929149  0.66460542  0.91213174  1
  Ti  Ti7  1  0.16668703  0.83337834  0.40965754  1
  Ti  Ti8  1  0.67070851  0.33539458  0.08786826  1
  Ti  Ti9  1  0.83331297  0.16662166  0.59034246  1
  Ti  Ti10  1  0.83536389  0.17073007  0.91231709  1
  Ti  Ti11  1  0.66468603  0.33539493  0.41213299  1
  Ti  Ti12  1  0.66668703  0.83337834  0.09034246  1
  Ti  Ti13  1  0.82929149  0.66460542  0.58786826  1
  Ti  Ti14  1  0.83531397  0.66460507  0.91213299  1
  Ti  Ti15  1  0.66463611  0.82926993  0.41231709  1
  Al  Al16  1  0.16666256  0.33332905  0.75000079  1
  Al  Al17  1  0.33329886  0.16660255  0.25003676  1
  Al  Al18  1  0.16670114  0.83339745  0.75003676  1
  Al  Al19  1  0.33333744  0.66667095  0.25000079  1
  Al  Al20  1  0.66666256  0.33332905  0.74999921  1
  Al  Al21  1  0.83329886  0.16660255  0.24996324  1
  Al  Al22  1  0.66670114  0.83339745  0.74996324  1
  Al  Al23  1  0.83333744  0.66667095  0.24999921  1
  O  O24  1  -0.00000000  -0.00000000  0.00000000  1
  O  O25  1  -0.00000000  -0.00000000  0.50000000  1
  O  O26  1  -0.00000000  0.50000000  0.50000000  1
  O  O27  1  0.50000000  -0.00000000  0.00000000  1
  O  O28  1  0.50000000  -0.00000000  0.50000000  1
  O  O29  1  0.50000000  0.50000000  0.00000000  1
  C  C30  1  -0.00000000  0.50000000  0.00000000  1
  C  C31  1  0.50000000  0.50000000  0.50000000  1
