# generated using pymatgen
data_Ti6Al2C3N
_symmetry_space_group_name_H-M   'P 1'
_cell_length_a   6.31470883
_cell_length_b   6.31545966
_cell_length_c   19.25467206
_cell_angle_alpha   90.00000000
_cell_angle_beta   89.99676100
_cell_angle_gamma   120.00393321
_symmetry_Int_Tables_number   1
_chemical_formula_structural   Ti6Al2C3N
_chemical_formula_sum   'Ti24 Al8 C12 N4'
_cell_volume   664.97885928
_cell_formula_units_Z   4
loop_
 _symmetry_equiv_pos_site_id
 _symmetry_equiv_pos_as_xyz
  1  'x, y, z'
loop_
 _atom_site_type_symbol
 _atom_site_label
 _atom_site_symmetry_multiplicity
 _atom_site_fract_x
 _atom_site_fract_y
 _atom_site_fract_z
 _atom_site_occupancy
  Ti  Ti0  1  0.16395983  0.33197994  0.87582179  1
  Ti  Ti1  1  0.33206016  0.16791612  0.37741587  1
  Ti  Ti2  1  0.33309421  0.16665225  0.12279746  1
  Ti  Ti3  1  0.16660710  0.33330356  0.62480855  1
  Ti  Ti4  1  0.00105327  0.00054793  0.99965808  1
  Ti  Ti5  1  0.00007588  0.00004083  0.50037536  1
  Ti  Ti6  1  0.16391045  0.83195522  0.87595914  1
  Ti  Ti7  1  0.33206016  0.66414404  0.37741587  1
  Ti  Ti8  1  0.33309421  0.66644195  0.12279746  1
  Ti  Ti9  1  0.16415459  0.83207730  0.62340125  1
  Ti  Ti10  1  0.00105327  0.50050536  0.99965808  1
  Ti  Ti11  1  0.00007588  0.50003504  0.50037536  1
  Ti  Ti12  1  0.66847630  0.33428123  0.87679980  1
  Ti  Ti13  1  0.83591215  0.16795607  0.37742600  1
  Ti  Ti14  1  0.83379859  0.16689928  0.12320781  1
  Ti  Ti15  1  0.66798172  0.33584426  0.62326690  1
  Ti  Ti16  1  0.49945929  0.99972965  0.99940096  1
  Ti  Ti17  1  0.49996441  0.99998220  0.50033757  1
  Ti  Ti18  1  0.66847630  0.83419508  0.87679980  1
  Ti  Ti19  1  0.83336882  0.66668442  0.37601602  1
  Ti  Ti20  1  0.83366126  0.66683063  0.12331074  1
  Ti  Ti21  1  0.66798172  0.83213745  0.62326690  1
  Ti  Ti22  1  0.49947122  0.49973561  0.99937871  1
  Ti  Ti23  1  0.49988997  0.49994499  0.50035247  1
  Al  Al24  1  0.00077053  0.00158448  0.25037834  1
  Al  Al25  1  0.99781988  0.99780964  0.75032417  1
  Al  Al26  1  0.00077053  0.49918605  0.25037834  1
  Al  Al27  1  0.99781988  0.50001024  0.75032417  1
  Al  Al28  1  0.50008908  0.00004453  0.25081245  1
  Al  Al29  1  0.50140247  0.00070123  0.75030482  1
  Al  Al30  1  0.49846784  0.49923391  0.25029394  1
  Al  Al31  1  0.50281244  0.50140622  0.75075699  1
  N  N32  1  0.16671035  0.33335518  0.43236561  1
  N  N33  1  0.83344062  0.16672031  0.93110888  1
  N  N34  1  0.83339743  0.66669872  0.93118703  1
  N  N35  1  0.83339209  0.66669604  0.56821840  1
  C  C36  1  0.33314072  0.16661035  0.93131282  1
  C  C37  1  0.33299050  0.16690622  0.56837713  1
  C  C38  1  0.16616069  0.33308036  0.06706574  1
  C  C39  1  0.16616667  0.83308334  0.43231017  1
  C  C40  1  0.33314072  0.66653037  0.93131282  1
  C  C41  1  0.33299050  0.66608427  0.56837713  1
  C  C42  1  0.16611431  0.83305716  0.06716302  1
  C  C43  1  0.66693796  0.33386800  0.43231470  1
  C  C44  1  0.83394156  0.16697078  0.56829052  1
  C  C45  1  0.66747224  0.33377053  0.06733009  1
  C  C46  1  0.66693796  0.83306996  0.43231470  1
  C  C47  1  0.66747224  0.83370171  0.06733009  1
