# generated using pymatgen
data_Ti6Al2C3N
_symmetry_space_group_name_H-M   'P 1'
_cell_length_a   6.28235042
_cell_length_b   6.28306084
_cell_length_c   19.11626958
_cell_angle_alpha   90.00000002
_cell_angle_beta   89.99693722
_cell_angle_gamma   120.00374067
_symmetry_Int_Tables_number   1
_chemical_formula_structural   Ti6Al2C3N
_chemical_formula_sum   'Ti24 Al8 C12 N4'
_cell_volume   653.44769162
_cell_formula_units_Z   4
loop_
 _symmetry_equiv_pos_site_id
 _symmetry_equiv_pos_as_xyz
  1  'x, y, z'
loop_
 _atom_site_type_symbol
 _atom_site_label
 _atom_site_symmetry_multiplicity
 _atom_site_fract_x
 _atom_site_fract_y
 _atom_site_fract_z
 _atom_site_occupancy
  Ti  Ti0  1  0.16401559  0.33200781  0.87505579  1
  Ti  Ti1  1  0.33207336  0.16789043  0.37658804  1
  Ti  Ti2  1  0.33306779  0.16663362  0.12362652  1
  Ti  Ti3  1  0.16661489  0.33330746  0.62557684  1
  Ti  Ti4  1  0.00085982  0.00045474  0.99961922  1
  Ti  Ti5  1  0.00007248  0.00002845  0.50037462  1
  Ti  Ti6  1  0.16398235  0.83199117  0.87520599  1
  Ti  Ti7  1  0.33207336  0.66418292  0.37658804  1
  Ti  Ti8  1  0.33306779  0.66643416  0.12362652  1
  Ti  Ti9  1  0.16417782  0.83208891  0.62418437  1
  Ti  Ti10  1  0.00085982  0.50040511  0.99961922  1
  Ti  Ti11  1  0.00007248  0.50004403  0.50037462  1
  Ti  Ti12  1  0.66844157  0.33425772  0.87604471  1
  Ti  Ti13  1  0.83587269  0.16793635  0.37660324  1
  Ti  Ti14  1  0.83381927  0.16690963  0.12403323  1
  Ti  Ti15  1  0.66796240  0.33581944  0.62403595  1
  Ti  Ti16  1  0.49964023  0.99982012  0.99938887  1
  Ti  Ti17  1  0.49995775  0.99997887  0.50033723  1
  Ti  Ti18  1  0.66844157  0.83418385  0.87604471  1
  Ti  Ti19  1  0.83337401  0.66668701  0.37521893  1
  Ti  Ti20  1  0.83368655  0.66684328  0.12414752  1
  Ti  Ti21  1  0.66796240  0.83214296  0.62403595  1
  Ti  Ti22  1  0.49965307  0.49982653  0.99936663  1
  Ti  Ti23  1  0.49990360  0.49995180  0.50035619  1
  Al  Al24  1  0.00076402  0.00156709  0.25034646  1
  Al  Al25  1  0.99784198  0.99783430  0.75028531  1
  Al  Al26  1  0.00076402  0.49919693  0.25034646  1
  Al  Al27  1  0.99784198  0.50000766  0.75028531  1
  Al  Al28  1  0.50006931  0.00003466  0.25078515  1
  Al  Al29  1  0.50139711  0.00069854  0.75025552  1
  Al  Al30  1  0.49847102  0.49923551  0.25026048  1
  Al  Al31  1  0.50279595  0.50139798  0.75072217  1
  N  N32  1  0.16670239  0.33335119  0.43222052  1
  N  N33  1  0.83346164  0.16673082  0.93099154  1
  N  N34  1  0.83340529  0.66670265  0.93107165  1
  N  N35  1  0.83339432  0.66669716  0.56833000  1
  C  C36  1  0.33314673  0.16663177  0.93105940  1
  C  C37  1  0.33297062  0.16691099  0.56862788  1
  C  C38  1  0.16614375  0.33307189  0.06734519  1
  C  C39  1  0.16612592  0.83306296  0.43203697  1
  C  C40  1  0.33314673  0.66651495  0.93105940  1
  C  C41  1  0.33297062  0.66605962  0.56862788  1
  C  C42  1  0.16609278  0.83304640  0.06744151  1
  C  C43  1  0.66695585  0.33390506  0.43203999  1
  C  C44  1  0.83397461  0.16698730  0.56853826  1
  C  C45  1  0.66747742  0.33377720  0.06761502  1
  C  C46  1  0.66695585  0.83305079  0.43203999  1
  C  C47  1  0.66747742  0.83370023  0.06761502  1
