# generated using pymatgen
data_Ti12Al4C3O
_symmetry_space_group_name_H-M   'P 1'
_cell_length_a   8.42623383
_cell_length_b   8.42576001
_cell_length_c   4.23534181
_cell_angle_alpha   90.00000000
_cell_angle_beta   90.00000000
_cell_angle_gamma   90.00000000
_symmetry_Int_Tables_number   1
_chemical_formula_structural   Ti12Al4C3O
_chemical_formula_sum   'Ti12 Al4 C3 O1'
_cell_volume   300.69835844
_cell_formula_units_Z   1
loop_
 _symmetry_equiv_pos_site_id
 _symmetry_equiv_pos_as_xyz
  1  'x, y, z'
loop_
 _atom_site_type_symbol
 _atom_site_label
 _atom_site_symmetry_multiplicity
 _atom_site_fract_x
 _atom_site_fract_y
 _atom_site_fract_z
 _atom_site_occupancy
  Ti  Ti0  1  0.99977712  0.25000000  0.50000000  1
  Ti  Ti1  1  0.25000000  0.25000000  -0.00000000  1
  Ti  Ti2  1  0.25000000  0.00079410  0.50000000  1
  Ti  Ti3  1  0.99919996  0.75000000  0.50000000  1
  Ti  Ti4  1  0.25000000  0.75000000  -0.00000000  1
  Ti  Ti5  1  0.25000000  0.49920590  0.50000000  1
  Ti  Ti6  1  0.50022288  0.25000000  0.50000000  1
  Ti  Ti7  1  0.75000000  0.25000000  -0.00000000  1
  Ti  Ti8  1  0.75000000  0.00023133  0.50000000  1
  Ti  Ti9  1  0.50080004  0.75000000  0.50000000  1
  Ti  Ti10  1  0.75000000  0.75000000  -0.00000000  1
  Ti  Ti11  1  0.75000000  0.49976867  0.50000000  1
  Al  Al12  1  0.00002969  0.99994029  -0.00000000  1
  Al  Al13  1  0.00002969  0.50005971  -0.00000000  1
  Al  Al14  1  0.49997031  0.99994029  -0.00000000  1
  Al  Al15  1  0.49997031  0.50005971  0.00000000  1
  C  C16  1  0.25000000  0.25000000  0.50000000  1
  C  C17  1  0.25000000  0.75000000  0.50000000  1
  C  C18  1  0.75000000  0.75000000  0.50000000  1
  O  O19  1  0.75000000  0.25000000  0.50000000  1
