# generated using pymatgen
data_Ti12Al4C3O
_symmetry_space_group_name_H-M   'P 1'
_cell_length_a   8.53299969
_cell_length_b   8.53255983
_cell_length_c   4.29105153
_cell_angle_alpha   90.00000000
_cell_angle_beta   90.00000000
_cell_angle_gamma   90.00000000
_symmetry_Int_Tables_number   1
_chemical_formula_structural   Ti12Al4C3O
_chemical_formula_sum   'Ti12 Al4 C3 O1'
_cell_volume   312.42429749
_cell_formula_units_Z   1
loop_
 _symmetry_equiv_pos_site_id
 _symmetry_equiv_pos_as_xyz
  1  'x, y, z'
loop_
 _atom_site_type_symbol
 _atom_site_label
 _atom_site_symmetry_multiplicity
 _atom_site_fract_x
 _atom_site_fract_y
 _atom_site_fract_z
 _atom_site_occupancy
  Ti  Ti0  1  0.00023651  0.25000000  0.50000000  1
  Ti  Ti1  1  0.25000000  0.25000000  -0.00000000  1
  Ti  Ti2  1  0.25000000  0.00083645  0.50000000  1
  Ti  Ti3  1  0.99915894  0.75000000  0.50000000  1
  Ti  Ti4  1  0.25000000  0.75000000  -0.00000000  1
  Ti  Ti5  1  0.25000000  0.49916355  0.50000000  1
  Ti  Ti6  1  0.49976349  0.25000000  0.50000000  1
  Ti  Ti7  1  0.75000000  0.25000000  -0.00000000  1
  Ti  Ti8  1  0.75000000  0.99977315  0.50000000  1
  Ti  Ti9  1  0.50084106  0.75000000  0.50000000  1
  Ti  Ti10  1  0.75000000  0.75000000  -0.00000000  1
  Ti  Ti11  1  0.75000000  0.50022685  0.50000000  1
  Al  Al12  1  -0.00002093  0.99998879  -0.00000000  1
  Al  Al13  1  -0.00002093  0.50001121  -0.00000000  1
  Al  Al14  1  0.50002093  0.99998879  -0.00000000  1
  Al  Al15  1  0.50002093  0.50001121  0.00000000  1
  C  C16  1  0.25000000  0.25000000  0.50000000  1
  C  C17  1  0.25000000  0.75000000  0.50000000  1
  C  C18  1  0.75000000  0.75000000  0.50000000  1
  O  O19  1  0.75000000  0.25000000  0.50000000  1
