# generated using pymatgen
data_Ti12Al4CN3
_symmetry_space_group_name_H-M   'P 1'
_cell_length_a   8.49397143
_cell_length_b   8.49397143
_cell_length_c   4.25163509
_cell_angle_alpha   90.00000000
_cell_angle_beta   90.00000000
_cell_angle_gamma   90.00000000
_symmetry_Int_Tables_number   1
_chemical_formula_structural   Ti12Al4CN3
_chemical_formula_sum   'Ti12 Al4 C1 N3'
_cell_volume   306.74505802
_cell_formula_units_Z   1
loop_
 _symmetry_equiv_pos_site_id
 _symmetry_equiv_pos_as_xyz
  1  'x, y, z'
loop_
 _atom_site_type_symbol
 _atom_site_label
 _atom_site_symmetry_multiplicity
 _atom_site_fract_x
 _atom_site_fract_y
 _atom_site_fract_z
 _atom_site_occupancy
  Ti  Ti0  1  0.00072376  0.25000000  0.50000000  1
  Ti  Ti1  1  0.25000000  0.25000000  0.00000000  1
  Ti  Ti2  1  0.25000000  0.00072376  0.50000000  1
  Ti  Ti3  1  0.00207496  0.75000000  0.50000000  1
  Ti  Ti4  1  0.25000000  0.75000000  0.00000000  1
  Ti  Ti5  1  0.25000000  0.49927624  0.50000000  1
  Ti  Ti6  1  0.49927624  0.25000000  0.50000000  1
  Ti  Ti7  1  0.75000000  0.25000000  0.00000000  1
  Ti  Ti8  1  0.75000000  0.00207496  0.50000000  1
  Ti  Ti9  1  0.49792504  0.75000000  0.50000000  1
  Ti  Ti10  1  0.75000000  0.75000000  0.00000000  1
  Ti  Ti11  1  0.75000000  0.49792504  0.50000000  1
  Al  Al12  1  0.99978153  0.99978153  0.00000000  1
  Al  Al13  1  0.99978153  0.50021847  0.00000000  1
  Al  Al14  1  0.50021847  0.99978153  0.00000000  1
  Al  Al15  1  0.50021847  0.50021847  0.00000000  1
  N  N16  1  0.25000000  0.25000000  0.50000000  1
  N  N17  1  0.25000000  0.75000000  0.50000000  1
  N  N18  1  0.75000000  0.25000000  0.50000000  1
  C  C19  1  0.75000000  0.75000000  0.50000000  1
