# generated using pymatgen
data_Ti12Al4C3N
_symmetry_space_group_name_H-M   'P 1'
_cell_length_a   8.33354345
_cell_length_b   8.33142143
_cell_length_c   4.16805146
_cell_angle_alpha   90.00000000
_cell_angle_beta   90.00000000
_cell_angle_gamma   90.00000000
_symmetry_Int_Tables_number   1
_chemical_formula_structural   Ti12Al4C3N
_chemical_formula_sum   'Ti12 Al4 C3 N1'
_cell_volume   289.38890693
_cell_formula_units_Z   1
loop_
 _symmetry_equiv_pos_site_id
 _symmetry_equiv_pos_as_xyz
  1  'x, y, z'
loop_
 _atom_site_type_symbol
 _atom_site_label
 _atom_site_symmetry_multiplicity
 _atom_site_fract_x
 _atom_site_fract_y
 _atom_site_fract_z
 _atom_site_occupancy
  Ti  Ti0  1  0.99832701  0.25000000  0.50000000  1
  Ti  Ti1  1  0.25000000  0.25000000  0.00000000  1
  Ti  Ti2  1  0.25000000  0.00041267  0.50000000  1
  Ti  Ti3  1  0.99958015  0.75000000  0.50000000  1
  Ti  Ti4  1  0.25000000  0.75000000  0.00000000  1
  Ti  Ti5  1  0.25000000  0.49958733  0.50000000  1
  Ti  Ti6  1  0.50167299  0.25000000  0.50000000  1
  Ti  Ti7  1  0.75000000  0.25000000  0.00000000  1
  Ti  Ti8  1  0.75000000  0.00170471  0.50000000  1
  Ti  Ti9  1  0.50041985  0.75000000  0.50000000  1
  Ti  Ti10  1  0.75000000  0.75000000  0.00000000  1
  Ti  Ti11  1  0.75000000  0.49829529  0.50000000  1
  Al  Al12  1  0.00024960  0.99969830  0.00000000  1
  Al  Al13  1  0.00024960  0.50030170  0.00000000  1
  Al  Al14  1  0.49975040  0.99969830  0.00000000  1
  Al  Al15  1  0.49975040  0.50030170  0.00000000  1
  C  C16  1  0.25000000  0.25000000  0.50000000  1
  C  C17  1  0.25000000  0.75000000  0.50000000  1
  C  C18  1  0.75000000  0.75000000  0.50000000  1
  N  N19  1  0.75000000  0.25000000  0.50000000  1
