# generated using pymatgen
data_ZrTaTiNbRuC5
_symmetry_space_group_name_H-M   'P 1'
_cell_length_a   7.05643739
_cell_length_b   7.08740814
_cell_length_c   4.46912464
_cell_angle_alpha   90.00000000
_cell_angle_beta   90.00000000
_cell_angle_gamma   90.42218804
_symmetry_Int_Tables_number   1
_chemical_formula_structural   ZrTaTiNbRuC5
_chemical_formula_sum   'Zr2 Ta2 Ti2 Nb2 Ru2 C10'
_cell_volume   223.50313130
_cell_formula_units_Z   2
loop_
 _symmetry_equiv_pos_site_id
 _symmetry_equiv_pos_as_xyz
  1  'x, y, z'
loop_
 _atom_site_type_symbol
 _atom_site_label
 _atom_site_symmetry_multiplicity
 _atom_site_fract_x
 _atom_site_fract_y
 _atom_site_fract_z
 _atom_site_occupancy
  C  C0  1  0.29580185  0.89037388  0.00000000  1
  C  C1  1  0.51207545  0.50641583  0.00000000  1
  C  C2  1  0.39556677  0.20437677  0.50000000  1
  C  C3  1  0.09242850  0.31224440  0.00000000  1
  C  C4  1  0.98353718  0.98678007  0.50000000  1
  C  C5  1  0.70514850  0.10268117  0.00000000  1
  C  C6  1  0.61022593  0.80381885  0.50000000  1
  C  C7  1  0.19931159  0.59134574  0.50000000  1
  C  C8  1  0.90685660  0.71224745  0.00000000  1
  C  C9  1  0.79775151  0.38617666  0.50000000  1
  Zr  Zr10  1  0.28768259  0.89819525  0.50000000  1
  Zr  Zr11  1  0.40216354  0.19976051  0.00000000  1
  Ta  Ta12  1  0.18807508  0.60379475  0.00000000  1
  Ta  Ta13  1  0.08994898  0.30289320  0.50000000  1
  Ti  Ti14  1  0.70491748  0.09355503  0.50000000  1
  Ti  Ti15  1  0.80117522  0.39220684  0.00000000  1
  Nb  Nb16  1  0.51862737  0.50321873  0.50000000  1
  Nb  Nb17  1  0.62440245  0.79986673  0.00000000  1
  Ru  Ru18  1  0.89347151  0.68188046  0.50000000  1
  Ru  Ru19  1  0.99083189  0.02816768  0.00000000  1
