# generated using pymatgen
data_ZrN
_symmetry_space_group_name_H-M   'P 1'
_cell_length_a   9.19060311
_cell_length_b   9.19060311
_cell_length_c   9.19060311
_cell_angle_alpha   90.00000000
_cell_angle_beta   90.00000000
_cell_angle_gamma   90.00000000
_symmetry_Int_Tables_number   1
_chemical_formula_structural   ZrN
_chemical_formula_sum   'Zr32 N32'
_cell_volume   776.30437798
_cell_formula_units_Z   32
loop_
 _symmetry_equiv_pos_site_id
 _symmetry_equiv_pos_as_xyz
  1  'x, y, z'
loop_
 _atom_site_type_symbol
 _atom_site_label
 _atom_site_symmetry_multiplicity
 _atom_site_fract_x
 _atom_site_fract_y
 _atom_site_fract_z
 _atom_site_occupancy
  Zr  Zr0  1  0.00000000  0.00000000  0.00000000  1
  Zr  Zr1  1  0.00000000  0.25000000  0.25000000  1
  Zr  Zr2  1  0.25000000  0.00000000  0.25000000  1
  Zr  Zr3  1  0.25000000  0.25000000  0.00000000  1
  Zr  Zr4  1  0.00000000  0.00000000  0.50000000  1
  Zr  Zr5  1  0.00000000  0.25000000  0.75000000  1
  Zr  Zr6  1  0.25000000  0.00000000  0.75000000  1
  Zr  Zr7  1  0.25000000  0.25000000  0.50000000  1
  Zr  Zr8  1  0.00000000  0.50000000  0.00000000  1
  Zr  Zr9  1  0.00000000  0.75000000  0.25000000  1
  Zr  Zr10  1  0.25000000  0.50000000  0.25000000  1
  Zr  Zr11  1  0.25000000  0.75000000  0.00000000  1
  Zr  Zr12  1  0.00000000  0.50000000  0.50000000  1
  Zr  Zr13  1  0.00000000  0.75000000  0.75000000  1
  Zr  Zr14  1  0.25000000  0.50000000  0.75000000  1
  Zr  Zr15  1  0.25000000  0.75000000  0.50000000  1
  Zr  Zr16  1  0.50000000  0.00000000  0.00000000  1
  Zr  Zr17  1  0.50000000  0.25000000  0.25000000  1
  Zr  Zr18  1  0.75000000  0.00000000  0.25000000  1
  Zr  Zr19  1  0.75000000  0.25000000  0.00000000  1
  Zr  Zr20  1  0.50000000  0.00000000  0.50000000  1
  Zr  Zr21  1  0.50000000  0.25000000  0.75000000  1
  Zr  Zr22  1  0.75000000  0.00000000  0.75000000  1
  Zr  Zr23  1  0.75000000  0.25000000  0.50000000  1
  Zr  Zr24  1  0.50000000  0.50000000  0.00000000  1
  Zr  Zr25  1  0.50000000  0.75000000  0.25000000  1
  Zr  Zr26  1  0.75000000  0.50000000  0.25000000  1
  Zr  Zr27  1  0.75000000  0.75000000  0.00000000  1
  Zr  Zr28  1  0.50000000  0.50000000  0.50000000  1
  Zr  Zr29  1  0.50000000  0.75000000  0.75000000  1
  Zr  Zr30  1  0.75000000  0.50000000  0.75000000  1
  Zr  Zr31  1  0.75000000  0.75000000  0.50000000  1
  N  N32  1  0.25000000  0.25000000  0.25000000  1
  N  N33  1  0.25000000  0.00000000  0.00000000  1
  N  N34  1  0.00000000  0.25000000  0.00000000  1
  N  N35  1  0.00000000  0.00000000  0.25000000  1
  N  N36  1  0.25000000  0.25000000  0.75000000  1
  N  N37  1  0.25000000  0.00000000  0.50000000  1
  N  N38  1  0.00000000  0.25000000  0.50000000  1
  N  N39  1  0.00000000  0.00000000  0.75000000  1
  N  N40  1  0.25000000  0.75000000  0.25000000  1
  N  N41  1  0.25000000  0.50000000  0.00000000  1
  N  N42  1  0.00000000  0.75000000  0.00000000  1
  N  N43  1  0.00000000  0.50000000  0.25000000  1
  N  N44  1  0.25000000  0.75000000  0.75000000  1
  N  N45  1  0.25000000  0.50000000  0.50000000  1
  N  N46  1  0.00000000  0.75000000  0.50000000  1
  N  N47  1  0.00000000  0.50000000  0.75000000  1
  N  N48  1  0.75000000  0.25000000  0.25000000  1
  N  N49  1  0.75000000  0.00000000  0.00000000  1
  N  N50  1  0.50000000  0.25000000  0.00000000  1
  N  N51  1  0.50000000  0.00000000  0.25000000  1
  N  N52  1  0.75000000  0.25000000  0.75000000  1
  N  N53  1  0.75000000  0.00000000  0.50000000  1
  N  N54  1  0.50000000  0.25000000  0.50000000  1
  N  N55  1  0.50000000  0.00000000  0.75000000  1
  N  N56  1  0.75000000  0.75000000  0.25000000  1
  N  N57  1  0.75000000  0.50000000  0.00000000  1
  N  N58  1  0.50000000  0.75000000  0.00000000  1
  N  N59  1  0.50000000  0.50000000  0.25000000  1
  N  N60  1  0.75000000  0.75000000  0.75000000  1
  N  N61  1  0.75000000  0.50000000  0.50000000  1
  N  N62  1  0.50000000  0.75000000  0.50000000  1
  N  N63  1  0.50000000  0.50000000  0.75000000  1
