# generated using pymatgen
data_Zr4C3N
_symmetry_space_group_name_H-M   'P 1'
_cell_length_a   9.36599725
_cell_length_b   9.36573146
_cell_length_c   9.37046446
_cell_angle_alpha   89.99618897
_cell_angle_beta   89.99363963
_cell_angle_gamma   89.99628766
_symmetry_Int_Tables_number   1
_chemical_formula_structural   Zr4C3N
_chemical_formula_sum   'Zr32 C24 N8'
_cell_volume   821.97165286
_cell_formula_units_Z   8
loop_
 _symmetry_equiv_pos_site_id
 _symmetry_equiv_pos_as_xyz
  1  'x, y, z'
loop_
 _atom_site_type_symbol
 _atom_site_label
 _atom_site_symmetry_multiplicity
 _atom_site_fract_x
 _atom_site_fract_y
 _atom_site_fract_z
 _atom_site_occupancy
  Zr  Zr0  1  0.99976264  0.99980464  0.99951189  1
  Zr  Zr1  1  0.00019968  0.24982448  0.25010945  1
  Zr  Zr2  1  0.25074092  0.00055603  0.24997642  1
  Zr  Zr3  1  0.24978259  0.25032002  0.00012721  1
  Zr  Zr4  1  0.00132558  0.00112942  0.50135889  1
  Zr  Zr5  1  0.00015439  0.24968663  0.75001695  1
  Zr  Zr6  1  0.24974620  0.99995063  0.75012885  1
  Zr  Zr7  1  0.25001705  0.24974154  0.49979721  1
  Zr  Zr8  1  0.00023546  0.50007587  0.99989453  1
  Zr  Zr9  1  0.99905082  0.74931465  0.24901906  1
  Zr  Zr10  1  0.24999742  0.49937774  0.24909158  1
  Zr  Zr11  1  0.24977368  0.74972483  0.99970755  1
  Zr  Zr12  1  0.00050412  0.49874138  0.50009613  1
  Zr  Zr13  1  0.00017711  0.75028937  0.75023233  1
  Zr  Zr14  1  0.25012502  0.50013918  0.75057275  1
  Zr  Zr15  1  0.25107252  0.75113753  0.50115492  1
  Zr  Zr16  1  0.50021858  0.99979708  0.00029345  1
  Zr  Zr17  1  0.49981569  0.24967666  0.25021457  1
  Zr  Zr18  1  0.74915027  0.99987736  0.24902015  1
  Zr  Zr19  1  0.75021104  0.24988139  0.00018089  1
  Zr  Zr20  1  0.49920053  0.00012299  0.49913634  1
  Zr  Zr21  1  0.49982571  0.24976332  0.74977049  1
  Zr  Zr22  1  0.75071239  0.99983733  0.75093337  1
  Zr  Zr23  1  0.75012696  0.24957173  0.49970551  1
  Zr  Zr24  1  0.49974594  0.50015389  0.99983488  1
  Zr  Zr25  1  0.50008211  0.75025525  0.25006299  1
  Zr  Zr26  1  0.74991126  0.49999944  0.24987730  1
  Zr  Zr27  1  0.75009318  0.75024641  0.00006267  1
  Zr  Zr28  1  0.49958724  0.49997872  0.50005126  1
  Zr  Zr29  1  0.49985030  0.75016242  0.75007317  1
  Zr  Zr30  1  0.74991637  0.50018005  0.75012200  1
  Zr  Zr31  1  0.74880516  0.75060230  0.49985128  1
  C  C32  1  0.24915376  0.24996432  0.25110876  1
  C  C33  1  0.24981763  0.99905906  0.00083990  1
  C  C34  1  0.99926067  0.25000328  0.00084876  1
  C  C35  1  0.25042804  0.25000585  0.74893303  1
  C  C36  1  0.24920896  0.99831197  0.49919331  1
  C  C37  1  0.99923433  0.25007068  0.49926364  1
  C  C38  1  0.99919807  0.99906153  0.74812137  1
  C  C39  1  0.24980516  0.50095407  0.00083713  1
  C  C40  1  0.99978849  0.74996457  0.00164768  1
  C  C41  1  0.99970461  0.50172208  0.25179615  1
  C  C42  1  0.24984277  0.75001590  0.74798217  1
  C  C43  1  0.99915822  0.50097546  0.74812004  1
  C  C44  1  0.75085087  0.25003939  0.25124932  1
  C  C45  1  0.75014293  0.99962550  0.00010216  1
  C  C46  1  0.50068416  0.25002774  0.99957686  1
  C  C47  1  0.50013596  0.99905190  0.25112140  1
  C  C48  1  0.74962621  0.25008360  0.74883953  1
  C  C49  1  0.50084890  0.25008926  0.50035858  1
  C  C50  1  0.75150870  0.74988281  0.25187847  1
  C  C51  1  0.50015373  0.74998797  0.00022947  1
  C  C52  1  0.50015358  0.50092013  0.25114249  1
  C  C53  1  0.75022397  0.74992369  0.74794130  1
  C  C54  1  0.50031793  0.74997329  0.49987065  1
  C  C55  1  0.50083072  0.50040992  0.74893157  1
  N  N56  1  0.99979482  0.99802334  0.25218107  1
  N  N57  1  0.24826409  0.74991990  0.25209845  1
  N  N58  1  0.24889327  0.50197250  0.49908640  1
  N  N59  1  0.99989362  0.75006162  0.49829497  1
  N  N60  1  0.75102718  0.99868408  0.49975278  1
  N  N61  1  0.50092480  0.99963349  0.74872350  1
  N  N62  1  0.75014961  0.50033796  0.00014193  1
  N  N63  1  0.75105634  0.50132288  0.49980111  1
