# generated using pymatgen
data_Zr4CN3
_symmetry_space_group_name_H-M   'P 1'
_cell_length_a   9.25984582
_cell_length_b   9.24964993
_cell_length_c   9.25585340
_cell_angle_alpha   90.00188678
_cell_angle_beta   89.99567650
_cell_angle_gamma   90.00827246
_symmetry_Int_Tables_number   1
_chemical_formula_structural   Zr4CN3
_chemical_formula_sum   'Zr32 C8 N24'
_cell_volume   792.76690774
_cell_formula_units_Z   8
loop_
 _symmetry_equiv_pos_site_id
 _symmetry_equiv_pos_as_xyz
  1  'x, y, z'
loop_
 _atom_site_type_symbol
 _atom_site_label
 _atom_site_symmetry_multiplicity
 _atom_site_fract_x
 _atom_site_fract_y
 _atom_site_fract_z
 _atom_site_occupancy
  Zr  Zr0  1  0.99841682  0.00012560  0.99952956  1
  Zr  Zr1  1  0.00196595  0.25068130  0.24814272  1
  Zr  Zr2  1  0.25253888  0.99916598  0.24987133  1
  Zr  Zr3  1  0.24840591  0.25003677  0.99785382  1
  Zr  Zr4  1  0.99803405  0.99931870  0.50185728  1
  Zr  Zr5  1  0.00158318  0.24987440  0.75047044  1
  Zr  Zr6  1  0.24814603  0.00191684  0.75011844  1
  Zr  Zr7  1  0.25192666  0.25067593  0.50183591  1
  Zr  Zr8  1  0.99820061  0.50003821  0.99830661  1
  Zr  Zr9  1  0.00174135  0.74908376  0.24768887  1
  Zr  Zr10  1  0.25071482  0.50097507  0.25049292  1
  Zr  Zr11  1  0.24725992  0.74995889  0.00064367  1
  Zr  Zr12  1  0.99825865  0.50091624  0.50231113  1
  Zr  Zr13  1  0.00179939  0.74996179  0.75169339  1
  Zr  Zr14  1  0.24763528  0.49843808  0.74962139  1
  Zr  Zr15  1  0.25098704  0.74921425  0.49929638  1
  Zr  Zr16  1  0.50251311  0.99964809  0.00180775  1
  Zr  Zr17  1  0.49829925  0.24806016  0.25201139  1
  Zr  Zr18  1  0.74807334  0.99932407  0.24816409  1
  Zr  Zr19  1  0.75185397  0.24808316  0.99988156  1
  Zr  Zr20  1  0.50170075  0.00193984  0.49798861  1
  Zr  Zr21  1  0.49748689  0.25035191  0.74819225  1
  Zr  Zr22  1  0.75159409  0.99996323  0.75214618  1
  Zr  Zr23  1  0.74746112  0.25083402  0.50012867  1
  Zr  Zr24  1  0.50176387  0.50038043  0.00153197  1
  Zr  Zr25  1  0.49824696  0.75188666  0.25180502  1
  Zr  Zr26  1  0.74901296  0.50078575  0.25070362  1
  Zr  Zr27  1  0.75236472  0.75156192  0.00037861  1
  Zr  Zr28  1  0.50175304  0.49811334  0.49819498  1
  Zr  Zr29  1  0.49823613  0.74961957  0.74846803  1
  Zr  Zr30  1  0.75274008  0.50004111  0.74935633  1
  Zr  Zr31  1  0.74928518  0.74902493  0.49950708  1
  N  N32  1  0.24900002  0.25032244  0.24980641  1
  N  N33  1  0.25190990  0.99957243  0.00051437  1
  N  N34  1  0.00099397  0.00064102  0.25292994  1
  N  N35  1  0.24873316  0.99869530  0.49933919  1
  N  N36  1  0.99900603  0.24935898  0.49707006  1
  N  N37  1  0.24952589  0.74984329  0.25032776  1
  N  N38  1  0.25306086  0.50047858  0.00129572  1
  N  N39  1  0.00008528  0.49950070  0.25181463  1
  N  N40  1  0.25288827  0.75024865  0.74965414  1
  N  N41  1  0.24949881  0.50106719  0.49881304  1
  N  N42  1  0.99991472  0.75049930  0.49818537  1
  N  N43  1  0.75126684  0.25130470  0.25066081  1
  N  N44  1  0.50024488  0.25244774  0.00008976  1
  N  N45  1  0.74809010  0.25042757  0.74948563  1
  N  N46  1  0.75099998  0.99967756  0.50019359  1
  N  N47  1  0.49975512  0.99755226  0.74991024  1
  N  N48  1  0.75050119  0.74893281  0.25118696  1
  N  N49  1  0.74711173  0.49975135  0.00034586  1
  N  N50  1  0.49931735  0.74789377  0.99811289  1
  N  N51  1  0.50015914  0.50037594  0.24792593  1
  N  N52  1  0.74693914  0.74952142  0.74870428  1
  N  N53  1  0.75047411  0.50015671  0.49967224  1
  N  N54  1  0.49984086  0.74962406  0.50207407  1
  N  N55  1  0.50068265  0.50210623  0.75188711  1
  C  C56  1  0.00018188  0.25077920  0.00266080  1
  C  C57  1  0.25129023  0.24995616  0.74990948  1
  C  C58  1  0.99981812  0.99922080  0.74733920  1
  C  C59  1  0.00075061  0.74915382  0.00193145  1
  C  C60  1  0.99924939  0.50084618  0.74806855  1
  C  C61  1  0.74870977  0.00004384  0.00009052  1
  C  C62  1  0.49949932  0.99946992  0.25004723  1
  C  C63  1  0.50050068  0.25053008  0.49995277  1
