# generated using pymatgen
data_Hf4CN3
_symmetry_space_group_name_H-M   'P 1'
_cell_length_a   9.13840409
_cell_length_b   9.12495226
_cell_length_c   9.13396562
_cell_angle_alpha   90.00252887
_cell_angle_beta   90.00431175
_cell_angle_gamma   90.01274830
_symmetry_Int_Tables_number   1
_chemical_formula_structural   Hf4CN3
_chemical_formula_sum   'Hf32 C8 N24'
_cell_volume   761.65854606
_cell_formula_units_Z   8
loop_
 _symmetry_equiv_pos_site_id
 _symmetry_equiv_pos_as_xyz
  1  'x, y, z'
loop_
 _atom_site_type_symbol
 _atom_site_label
 _atom_site_symmetry_multiplicity
 _atom_site_fract_x
 _atom_site_fract_y
 _atom_site_fract_z
 _atom_site_occupancy
  Hf  Hf0  1  0.99769354  0.00000334  0.99890437  1
  Hf  Hf1  1  0.00201340  0.25062342  0.24762861  1
  Hf  Hf2  1  0.25307454  0.99915502  0.24984640  1
  Hf  Hf3  1  0.24790060  0.24993665  0.99739209  1
  Hf  Hf4  1  0.99797630  0.99937979  0.50240793  1
  Hf  Hf5  1  0.00230549  0.25000942  0.75108878  1
  Hf  Hf6  1  0.24762045  0.00243533  0.75015886  1
  Hf  Hf7  1  0.25251917  0.25063394  0.50228666  1
  Hf  Hf8  1  0.99815585  0.50010678  0.99777812  1
  Hf  Hf9  1  0.00183860  0.74909547  0.24728223  1
  Hf  Hf10  1  0.25061613  0.50096686  0.25050226  1
  Hf  Hf11  1  0.24682644  0.75004975  0.00073056  1
  Hf  Hf12  1  0.99815148  0.50091653  0.50276680  1
  Hf  Hf13  1  0.00183530  0.74990790  0.75220560  1
  Hf  Hf14  1  0.24717128  0.49795695  0.74959289  1
  Hf  Hf15  1  0.25087071  0.74930217  0.49922113  1
  Hf  Hf16  1  0.50308498  0.99973353  0.00248837  1
  Hf  Hf17  1  0.49828253  0.24766543  0.25267779  1
  Hf  Hf18  1  0.74748302  0.99936111  0.24771774  1
  Hf  Hf19  1  0.75239288  0.24758211  0.99983731  1
  Hf  Hf20  1  0.50172697  0.00234767  0.49726987  1
  Hf  Hf21  1  0.49694240  0.25025752  0.74753311  1
  Hf  Hf22  1  0.75209425  0.00007034  0.75259566  1
  Hf  Hf23  1  0.74690750  0.25084107  0.50014954  1
  Hf  Hf24  1  0.50175057  0.50025011  0.00153391  1
  Hf  Hf25  1  0.49810902  0.75226196  0.25182607  1
  Hf  Hf26  1  0.74913661  0.50070166  0.25077748  1
  Hf  Hf27  1  0.75282636  0.75204063  0.00040783  1
  Hf  Hf28  1  0.50190846  0.49769005  0.49814891  1
  Hf  Hf29  1  0.49825898  0.74974721  0.74846720  1
  Hf  Hf30  1  0.75317391  0.49995578  0.74925908  1
  Hf  Hf31  1  0.74938894  0.74903321  0.49949602  1
  N  N32  1  0.24896661  0.25042551  0.24984704  1
  N  N33  1  0.25211390  0.99950574  0.00048665  1
  N  N34  1  0.00102342  0.00061966  0.25333513  1
  N  N35  1  0.24863233  0.99860818  0.49926350  1
  N  N36  1  0.99897352  0.24938958  0.49668135  1
  N  N37  1  0.24954270  0.74973742  0.25047337  1
  N  N38  1  0.25335581  0.50050993  0.00138320  1
  N  N39  1  0.00008990  0.49946691  0.25212902  1
  N  N40  1  0.25315701  0.75030152  0.74958276  1
  N  N41  1  0.24954511  0.50123379  0.49861722  1
  N  N42  1  0.99991977  0.75053920  0.49789014  1
  N  N43  1  0.75137792  0.25139916  0.25072816  1
  N  N44  1  0.50025591  0.25256226  0.00005576  1
  N  N45  1  0.74788413  0.25049985  0.74950417  1
  N  N46  1  0.75103435  0.99956225  0.50014678  1
  N  N47  1  0.49973776  0.99743060  0.74993083  1
  N  N48  1  0.75045690  0.74876327  0.25137844  1
  N  N49  1  0.74685207  0.49970743  0.00040760  1
  N  N50  1  0.49920947  0.74775242  0.99801519  1
  N  N51  1  0.50017332  0.50044387  0.24783505  1
  N  N52  1  0.74663906  0.74949088  0.74861583  1
  N  N53  1  0.75045072  0.50025030  0.49953401  1
  N  N54  1  0.49983145  0.74953474  0.50215600  1
  N  N55  1  0.50079225  0.50224325  0.75197072  1
  C  C56  1  0.00018352  0.25080509  0.00268234  1
  C  C57  1  0.25135385  0.24997294  0.74996771  1
  C  C58  1  0.99979702  0.99920716  0.74735359  1
  C  C59  1  0.00073006  0.74917202  0.00196863  1
  C  C60  1  0.99926694  0.50087904  0.74807375  1
  C  C61  1  0.74865954  0.00002704  0.00003373  1
  C  C62  1  0.49948847  0.99941901  0.24997545  1
  C  C63  1  0.50046852  0.25052129  0.49999771  1
