# generated using pymatgen
data_Hf15ZrC16
_symmetry_space_group_name_H-M   'P 1'
_cell_length_a   9.30151937
_cell_length_b   9.30151937
_cell_length_c   9.30155697
_cell_angle_alpha   90.00000000
_cell_angle_beta   90.00000000
_cell_angle_gamma   90.00000000
_symmetry_Int_Tables_number   1
_chemical_formula_structural   Hf15ZrC16
_chemical_formula_sum   'Hf30 Zr2 C32'
_cell_volume   804.75454843
_cell_formula_units_Z   2
loop_
 _symmetry_equiv_pos_site_id
 _symmetry_equiv_pos_as_xyz
  1  'x, y, z'
loop_
 _atom_site_type_symbol
 _atom_site_label
 _atom_site_symmetry_multiplicity
 _atom_site_fract_x
 _atom_site_fract_y
 _atom_site_fract_z
 _atom_site_occupancy
  Hf  Hf0  1  0.99985493  0.00000000  0.99979647  1
  Hf  Hf1  1  0.00000000  0.25000000  0.25000000  1
  Hf  Hf2  1  0.25000000  0.25014507  0.99979647  1
  Hf  Hf3  1  0.99985493  0.00000000  0.50020353  1
  Hf  Hf4  1  0.00000000  0.25000000  0.75000000  1
  Hf  Hf5  1  0.25000000  0.00000000  0.75000000  1
  Hf  Hf6  1  0.25000000  0.25014507  0.50020353  1
  Hf  Hf7  1  0.00014507  0.50000000  0.99979647  1
  Hf  Hf8  1  0.00000000  0.75000000  0.25000000  1
  Hf  Hf9  1  0.25000000  0.50000000  0.25000000  1
  Hf  Hf10  1  0.25000000  0.74985493  0.99979647  1
  Hf  Hf11  1  0.00014507  0.50000000  0.50020353  1
  Hf  Hf12  1  0.00000000  0.75000000  0.75000000  1
  Hf  Hf13  1  0.25000000  0.50000000  0.75000000  1
  Hf  Hf14  1  0.25000000  0.74985493  0.50020353  1
  Hf  Hf15  1  0.50014507  0.00000000  0.99979647  1
  Hf  Hf16  1  0.50000000  0.25000000  0.25000000  1
  Hf  Hf17  1  0.75000000  0.00000000  0.25000000  1
  Hf  Hf18  1  0.75000000  0.24985493  0.99979647  1
  Hf  Hf19  1  0.50014507  0.00000000  0.50020353  1
  Hf  Hf20  1  0.50000000  0.25000000  0.75000000  1
  Hf  Hf21  1  0.75000000  0.00000000  0.75000000  1
  Hf  Hf22  1  0.75000000  0.24985493  0.50020353  1
  Hf  Hf23  1  0.49985493  0.50000000  0.99979647  1
  Hf  Hf24  1  0.50000000  0.75000000  0.25000000  1
  Hf  Hf25  1  0.75000000  0.75014507  0.99979647  1
  Hf  Hf26  1  0.49985493  0.50000000  0.50020353  1
  Hf  Hf27  1  0.50000000  0.75000000  0.75000000  1
  Hf  Hf28  1  0.75000000  0.50000000  0.75000000  1
  Hf  Hf29  1  0.75000000  0.75014507  0.50020353  1
  Zr  Zr30  1  0.25000000  0.00000000  0.25000000  1
  Zr  Zr31  1  0.75000000  0.50000000  0.25000000  1
  C  C32  1  0.25000000  0.25124577  0.25000000  1
  C  C33  1  0.25000000  0.00000000  0.99869730  1
  C  C34  1  0.00000000  0.25000000  0.99995905  1
  C  C35  1  0.99875423  0.00000000  0.25000000  1
  C  C36  1  0.25000000  0.25005974  0.75000000  1
  C  C37  1  0.25000000  0.00000000  0.50130270  1
  C  C38  1  0.00000000  0.25000000  0.50004095  1
  C  C39  1  0.99994026  0.00000000  0.75000000  1
  C  C40  1  0.25000000  0.74875423  0.25000000  1
  C  C41  1  0.25000000  0.50000000  0.99988386  1
  C  C42  1  0.00000000  0.75000000  0.99995905  1
  C  C43  1  0.00124577  0.50000000  0.25000000  1
  C  C44  1  0.25000000  0.74994026  0.75000000  1
  C  C45  1  0.25000000  0.50000000  0.50011614  1
  C  C46  1  0.00000000  0.75000000  0.50004095  1
  C  C47  1  0.00005974  0.50000000  0.75000000  1
  C  C48  1  0.75000000  0.24875423  0.25000000  1
  C  C49  1  0.75000000  0.00000000  0.99988386  1
  C  C50  1  0.50000000  0.25000000  0.99995905  1
  C  C51  1  0.50124577  0.00000000  0.25000000  1
  C  C52  1  0.75000000  0.24994026  0.75000000  1
  C  C53  1  0.75000000  0.00000000  0.50011614  1
  C  C54  1  0.50000000  0.25000000  0.50004095  1
  C  C55  1  0.50005974  0.00000000  0.75000000  1
  C  C56  1  0.75000000  0.75124577  0.25000000  1
  C  C57  1  0.75000000  0.50000000  0.99869730  1
  C  C58  1  0.50000000  0.75000000  0.99995905  1
  C  C59  1  0.49875423  0.50000000  0.25000000  1
  C  C60  1  0.75000000  0.75005974  0.75000000  1
  C  C61  1  0.75000000  0.50000000  0.50130270  1
  C  C62  1  0.50000000  0.75000000  0.50004095  1
  C  C63  1  0.49994026  0.50000000  0.75000000  1
