# generated using pymatgen
data_Ti4CN3
_symmetry_space_group_name_H-M   'P 1'
_cell_length_a   8.54902336
_cell_length_b   8.53203334
_cell_length_c   8.54179008
_cell_angle_alpha   90.01262184
_cell_angle_beta   89.95576431
_cell_angle_gamma   89.99585581
_symmetry_Int_Tables_number   1
_chemical_formula_structural   Ti4CN3
_chemical_formula_sum   'Ti32 C8 N24'
_cell_volume   623.04268429
_cell_formula_units_Z   8
loop_
 _symmetry_equiv_pos_site_id
 _symmetry_equiv_pos_as_xyz
  1  'x, y, z'
loop_
 _atom_site_type_symbol
 _atom_site_label
 _atom_site_symmetry_multiplicity
 _atom_site_fract_x
 _atom_site_fract_y
 _atom_site_fract_z
 _atom_site_occupancy
  Ti  Ti0  1  0.99833606  0.00061793  0.00004107  1
  Ti  Ti1  1  0.00324534  0.25054215  0.24778381  1
  Ti  Ti2  1  0.25314806  0.99920455  0.25005541  1
  Ti  Ti3  1  0.24813017  0.25050077  0.99739033  1
  Ti  Ti4  1  0.99675466  0.99945785  0.50221619  1
  Ti  Ti5  1  0.00166394  0.24938207  0.74995893  1
  Ti  Ti6  1  0.24789742  0.00204031  0.75005583  1
  Ti  Ti7  1  0.25200793  0.25064470  0.50234540  1
  Ti  Ti8  1  0.99722040  0.49972591  0.99832320  1
  Ti  Ti9  1  0.00258903  0.74946368  0.24681405  1
  Ti  Ti10  1  0.25123444  0.50160074  0.25021245  1
  Ti  Ti11  1  0.24639843  0.74975716  0.00012989  1
  Ti  Ti12  1  0.99741097  0.50053632  0.50318595  1
  Ti  Ti13  1  0.00277960  0.75027409  0.75167680  1
  Ti  Ti14  1  0.24691872  0.49825258  0.74986661  1
  Ti  Ti15  1  0.25153533  0.74870746  0.49973185  1
  Ti  Ti16  1  0.50312149  0.99966056  0.00136622  1
  Ti  Ti17  1  0.49736388  0.24737695  0.25134404  1
  Ti  Ti18  1  0.74799207  0.99935530  0.24765460  1
  Ti  Ti19  1  0.75210258  0.24795969  0.99994417  1
  Ti  Ti20  1  0.50263612  0.00262305  0.49865596  1
  Ti  Ti21  1  0.49687851  0.25033944  0.74863378  1
  Ti  Ti22  1  0.75186983  0.99949923  0.75260967  1
  Ti  Ti23  1  0.74685194  0.25079545  0.49994459  1
  Ti  Ti24  1  0.50331301  0.50047508  0.00152254  1
  Ti  Ti25  1  0.49752603  0.75330090  0.25141894  1
  Ti  Ti26  1  0.74846467  0.50129254  0.25026815  1
  Ti  Ti27  1  0.75308128  0.75174742  0.00013339  1
  Ti  Ti28  1  0.50247397  0.49669910  0.49858106  1
  Ti  Ti29  1  0.49668699  0.74952492  0.74847746  1
  Ti  Ti30  1  0.75360157  0.50024284  0.74987011  1
  Ti  Ti31  1  0.74876556  0.74839926  0.49978755  1
  N  N32  1  0.24945127  0.25057793  0.24982613  1
  N  N33  1  0.25162087  0.99970624  0.00054272  1
  N  N34  1  0.00081773  0.00038012  0.25208053  1
  N  N35  1  0.24910595  0.99876843  0.49957588  1
  N  N36  1  0.99918227  0.24961988  0.49791947  1
  N  N37  1  0.24991942  0.74991820  0.25024204  1
  N  N38  1  0.25232178  0.50056119  0.00114558  1
  N  N39  1  0.00013063  0.49995892  0.25135080  1
  N  N40  1  0.25163534  0.74999822  0.74966931  1
  N  N41  1  0.24969950  0.50089063  0.49908905  1
  N  N42  1  0.99986937  0.75004108  0.49864920  1
  N  N43  1  0.75089405  0.25123157  0.25042412  1
  N  N44  1  0.50018261  0.25163373  0.00000057  1
  N  N45  1  0.74837913  0.25029376  0.74945728  1
  N  N46  1  0.75054873  0.99942207  0.50017387  1
  N  N47  1  0.49981739  0.99836627  0.74999943  1
  N  N48  1  0.75030050  0.74910937  0.25091095  1
  N  N49  1  0.74836466  0.50000178  0.00033069  1
  N  N50  1  0.49963714  0.74858259  0.99900574  1
  N  N51  1  0.50008173  0.50067839  0.24913433  1
  N  N52  1  0.74767822  0.74943881  0.74885442  1
  N  N53  1  0.75008058  0.50008180  0.49975796  1
  N  N54  1  0.49991827  0.74932161  0.50086567  1
  N  N55  1  0.50036286  0.50141741  0.75099426  1
  C  C56  1  0.00017298  0.25055435  0.00162045  1
  C  C57  1  0.25050705  0.24999351  0.74991052  1
  C  C58  1  0.99982702  0.99944565  0.74837955  1
  C  C59  1  0.00043009  0.74954165  0.00102984  1
  C  C60  1  0.99956991  0.50045835  0.74897016  1
  C  C61  1  0.74949295  0.00000649  0.00008948  1
  C  C62  1  0.50003233  0.99981643  0.25011409  1
  C  C63  1  0.49996767  0.25018357  0.49988591  1
