# generated using pymatgen
data_Ti4C3N
_symmetry_space_group_name_H-M   'P 1'
_cell_length_a   8.62407930
_cell_length_b   8.62313315
_cell_length_c   8.62808380
_cell_angle_alpha   89.98857066
_cell_angle_beta   89.98176833
_cell_angle_gamma   89.98734296
_symmetry_Int_Tables_number   1
_chemical_formula_structural   Ti4C3N
_chemical_formula_sum   'Ti32 C24 N8'
_cell_volume   641.64105855
_cell_formula_units_Z   8
loop_
 _symmetry_equiv_pos_site_id
 _symmetry_equiv_pos_as_xyz
  1  'x, y, z'
loop_
 _atom_site_type_symbol
 _atom_site_label
 _atom_site_symmetry_multiplicity
 _atom_site_fract_x
 _atom_site_fract_y
 _atom_site_fract_z
 _atom_site_occupancy
  Ti  Ti0  1  0.99982033  0.99986462  0.99993624  1
  Ti  Ti1  1  0.00004649  0.24965523  0.25007231  1
  Ti  Ti2  1  0.25029773  0.00017452  0.24993081  1
  Ti  Ti3  1  0.24985024  0.25025134  0.00008625  1
  Ti  Ti4  1  0.00119856  0.00097293  0.50114267  1
  Ti  Ti5  1  0.00010704  0.24980785  0.74992914  1
  Ti  Ti6  1  0.25007427  0.00001905  0.75009582  1
  Ti  Ti7  1  0.25002244  0.25008374  0.49984466  1
  Ti  Ti8  1  0.99996577  0.50001607  0.99990741  1
  Ti  Ti9  1  0.99930828  0.74946845  0.24954416  1
  Ti  Ti10  1  0.24999751  0.49973839  0.24961891  1
  Ti  Ti11  1  0.24982253  0.74981127  0.00011804  1
  Ti  Ti12  1  0.00033406  0.49919255  0.50008354  1
  Ti  Ti13  1  0.00009010  0.75021727  0.74975330  1
  Ti  Ti14  1  0.25008515  0.50013323  0.75003867  1
  Ti  Ti15  1  0.25090703  0.75112880  0.50101413  1
  Ti  Ti16  1  0.50012664  0.99986767  0.99994700  1
  Ti  Ti17  1  0.49985562  0.24968852  0.25012767  1
  Ti  Ti18  1  0.74956850  0.99982968  0.24951572  1
  Ti  Ti19  1  0.75012940  0.25011006  0.00007728  1
  Ti  Ti20  1  0.49960545  0.00008428  0.49957655  1
  Ti  Ti21  1  0.49994734  0.24964500  0.74977779  1
  Ti  Ti22  1  0.75036636  0.99988026  0.75039844  1
  Ti  Ti23  1  0.75002822  0.24969099  0.49980257  1
  Ti  Ti24  1  0.50002512  0.50008920  0.99989543  1
  Ti  Ti25  1  0.49982231  0.75013448  0.25008512  1
  Ti  Ti26  1  0.74987138  0.49995114  0.24994964  1
  Ti  Ti27  1  0.75005188  0.74993646  0.00006293  1
  Ti  Ti28  1  0.49979063  0.49996063  0.50000208  1
  Ti  Ti29  1  0.49996173  0.75030102  0.74996550  1
  Ti  Ti30  1  0.75001626  0.50013643  0.75000235  1
  Ti  Ti31  1  0.74926472  0.75045982  0.49991139  1
  C  C32  1  0.24937557  0.24988863  0.25076672  1
  C  C33  1  0.24974697  0.99924998  0.00062276  1
  C  C34  1  0.99946150  0.24993697  0.00064010  1
  C  C35  1  0.25025318  0.25012295  0.74906797  1
  C  C36  1  0.24943062  0.99884844  0.49953217  1
  C  C37  1  0.99943298  0.25011953  0.49945756  1
  C  C38  1  0.99943865  0.99939988  0.74854878  1
  C  C39  1  0.24976666  0.50076751  0.00064668  1
  C  C40  1  0.99980901  0.74994561  0.00123899  1
  C  C41  1  0.99965520  0.50107247  0.25128090  1
  C  C42  1  0.24983222  0.75012271  0.74858872  1
  C  C43  1  0.99940046  0.50082880  0.74854243  1
  C  C44  1  0.75048946  0.24989358  0.25080708  1
  C  C45  1  0.75008671  0.99953098  0.00013819  1
  C  C46  1  0.50052711  0.24998434  0.99973793  1
  C  C47  1  0.50008172  0.99916153  0.25086774  1
  C  C48  1  0.74988279  0.25016811  0.74898335  1
  C  C49  1  0.50075307  0.25011463  0.50012469  1
  C  C50  1  0.75090494  0.74969444  0.25126512  1
  C  C51  1  0.50005815  0.74996803  0.00031831  1
  C  C52  1  0.50016818  0.50064559  0.25091751  1
  C  C53  1  0.75021993  0.74996546  0.74858427  1
  C  C54  1  0.50035654  0.74996469  0.49991204  1
  C  C55  1  0.50070155  0.50048246  0.74902415  1
  N  N56  1  0.99968370  0.99841109  0.25162824  1
  N  N57  1  0.24864307  0.74989355  0.25161158  1
  N  N58  1  0.24911851  0.50155579  0.49935959  1
  N  N59  1  0.99983258  0.75003168  0.49889138  1
  N  N60  1  0.75077553  0.99887380  0.49979412  1
  N  N61  1  0.50080866  0.99975814  0.74888409  1
  N  N62  1  0.75010436  0.50027408  0.00016097  1
  N  N63  1  0.75084130  0.50102365  0.49984238  1
