# generated using pymatgen
data_HfZr15C16
_symmetry_space_group_name_H-M   'P 1'
_cell_length_a   9.41237345
_cell_length_b   9.41240456
_cell_length_c   9.41240456
_cell_angle_alpha   89.99944855
_cell_angle_beta   90.00000000
_cell_angle_gamma   90.00000000
_symmetry_Int_Tables_number   1
_chemical_formula_structural   HfZr15C16
_chemical_formula_sum   'Hf2 Zr30 C32'
_cell_volume   833.87378576
_cell_formula_units_Z   2
loop_
 _symmetry_equiv_pos_site_id
 _symmetry_equiv_pos_as_xyz
  1  'x, y, z'
loop_
 _atom_site_type_symbol
 _atom_site_label
 _atom_site_symmetry_multiplicity
 _atom_site_fract_x
 _atom_site_fract_y
 _atom_site_fract_z
 _atom_site_occupancy
  Zr  Zr0  1  0.00000000  0.00025841  0.00025700  1
  Zr  Zr1  1  0.24980135  0.00026525  0.24993403  1
  Zr  Zr2  1  0.25000000  0.25026408  0.00026408  1
  Zr  Zr3  1  0.00000000  0.00025420  0.49974580  1
  Zr  Zr4  1  0.00000000  0.25006024  0.75006292  1
  Zr  Zr5  1  0.25000000  0.00006933  0.75006933  1
  Zr  Zr6  1  0.24980135  0.25006597  0.49973475  1
  Zr  Zr7  1  0.00000000  0.49974649  0.00025351  1
  Zr  Zr8  1  0.00000000  0.74993708  0.24993976  1
  Zr  Zr9  1  0.25000000  0.49973592  0.24973592  1
  Zr  Zr10  1  0.25019865  0.74973475  0.00006597  1
  Zr  Zr11  1  0.00000000  0.49974300  0.49974159  1
  Zr  Zr12  1  0.00000000  0.74994089  0.75005911  1
  Zr  Zr13  1  0.25019865  0.49993403  0.75026525  1
  Zr  Zr14  1  0.25000000  0.74993067  0.49993067  1
  Zr  Zr15  1  0.50000000  0.00006292  0.00006024  1
  Zr  Zr16  1  0.50000000  0.25025351  0.24974649  1
  Zr  Zr17  1  0.75019865  0.00026525  0.24993403  1
  Zr  Zr18  1  0.75000000  0.25026408  0.00026408  1
  Zr  Zr19  1  0.50000000  0.00005911  0.49994089  1
  Zr  Zr20  1  0.50000000  0.25025700  0.75025841  1
  Zr  Zr21  1  0.75000000  0.00006933  0.75006933  1
  Zr  Zr22  1  0.75019865  0.25006597  0.49973475  1
  Zr  Zr23  1  0.50000000  0.74974159  0.24974300  1
  Zr  Zr24  1  0.75000000  0.49973592  0.24973592  1
  Zr  Zr25  1  0.74980135  0.74973475  0.00006597  1
  Zr  Zr26  1  0.50000000  0.49993976  0.49993708  1
  Zr  Zr27  1  0.50000000  0.74974580  0.75025420  1
  Zr  Zr28  1  0.74980135  0.49993403  0.75026525  1
  Zr  Zr29  1  0.75000000  0.74993067  0.49993067  1
  Hf  Hf30  1  0.00000000  0.25006239  0.24993761  1
  Hf  Hf31  1  0.50000000  0.49993761  0.00006239  1
  C  C32  1  0.24854045  0.25004926  0.24995074  1
  C  C33  1  0.25011262  0.00006307  0.00006208  1
  C  C34  1  0.00000000  0.25013325  0.00149913  1
  C  C35  1  0.00000000  0.00150444  0.24995831  1
  C  C36  1  0.24988738  0.25006208  0.75006307  1
  C  C37  1  0.24999268  0.00005962  0.49994038  1
  C  C38  1  0.00000000  0.25004169  0.49849556  1
  C  C39  1  0.00000000  0.00016510  0.75005572  1
  C  C40  1  0.24988738  0.74993693  0.24993792  1
  C  C41  1  0.25145955  0.49995074  0.00004926  1
  C  C42  1  0.00000000  0.74982998  0.00016418  1
  C  C43  1  0.00000000  0.49850087  0.24986675  1
  C  C44  1  0.25000732  0.74994038  0.75005962  1
  C  C45  1  0.25011262  0.49993792  0.49993693  1
  C  C46  1  0.00000000  0.74994428  0.49983490  1
  C  C47  1  0.00000000  0.49983582  0.75017002  1
  C  C48  1  0.75145955  0.25004926  0.24995074  1
  C  C49  1  0.74988738  0.00006307  0.00006208  1
  C  C50  1  0.50000000  0.25149913  0.00013325  1
  C  C51  1  0.50000000  0.00017002  0.24983582  1
  C  C52  1  0.75011262  0.25006208  0.75006307  1
  C  C53  1  0.75000732  0.00005962  0.49994038  1
  C  C54  1  0.50000000  0.25016418  0.49982998  1
  C  C55  1  0.50000000  0.00005572  0.75016510  1
  C  C56  1  0.75011262  0.74993693  0.24993792  1
  C  C57  1  0.74854045  0.49995074  0.00004926  1
  C  C58  1  0.50000000  0.74849556  0.00004169  1
  C  C59  1  0.50000000  0.49986675  0.24850087  1
  C  C60  1  0.74999268  0.74994038  0.75005962  1
  C  C61  1  0.74988738  0.49993792  0.49993693  1
  C  C62  1  0.50000000  0.74983490  0.49994428  1
  C  C63  1  0.50000000  0.49995831  0.75150444  1
