# generated using pymatgen
data_Hf4C3N
_symmetry_space_group_name_H-M   'P 1'
_cell_length_a   9.24178106
_cell_length_b   9.24097116
_cell_length_c   9.24582388
_cell_angle_alpha   89.99939676
_cell_angle_beta   89.99675194
_cell_angle_gamma   89.99949301
_symmetry_Int_Tables_number   1
_chemical_formula_structural   Hf4C3N
_chemical_formula_sum   'Hf32 C24 N8'
_cell_volume   789.62139322
_cell_formula_units_Z   8
loop_
 _symmetry_equiv_pos_site_id
 _symmetry_equiv_pos_as_xyz
  1  'x, y, z'
loop_
 _atom_site_type_symbol
 _atom_site_label
 _atom_site_symmetry_multiplicity
 _atom_site_fract_x
 _atom_site_fract_y
 _atom_site_fract_z
 _atom_site_occupancy
  Hf  Hf0  1  0.99995659  0.99996413  0.99898908  1
  Hf  Hf1  1  0.00005954  0.25058560  0.24993757  1
  Hf  Hf2  1  0.25118897  0.00120131  0.24973935  1
  Hf  Hf3  1  0.24987066  0.25010958  0.99997911  1
  Hf  Hf4  1  0.00175025  0.00172262  0.50168649  1
  Hf  Hf5  1  0.00009403  0.24988558  0.75010913  1
  Hf  Hf6  1  0.24926208  0.00005650  0.75027018  1
  Hf  Hf7  1  0.25011874  0.24913126  0.49991341  1
  Hf  Hf8  1  0.00094012  0.49995082  0.99981112  1
  Hf  Hf9  1  0.99855390  0.74873022  0.24840372  1
  Hf  Hf10  1  0.25013607  0.49876885  0.24854395  1
  Hf  Hf11  1  0.24994094  0.74993697  0.99909397  1
  Hf  Hf12  1  0.00059755  0.49815470  0.50018863  1
  Hf  Hf13  1  0.00007064  0.75008215  0.75091075  1
  Hf  Hf14  1  0.25007949  0.49999264  0.75114803  1
  Hf  Hf15  1  0.25162500  0.75158476  0.50163908  1
  Hf  Hf16  1  0.50002348  0.99985389  0.00077314  1
  Hf  Hf17  1  0.49995395  0.24988559  0.25017548  1
  Hf  Hf18  1  0.74871059  0.00005299  0.24845154  1
  Hf  Hf19  1  0.75015039  0.24926342  0.00009164  1
  Hf  Hf20  1  0.49859623  0.00022375  0.49872490  1
  Hf  Hf21  1  0.49986661  0.25043347  0.74988247  1
  Hf  Hf22  1  0.75109157  0.99989991  0.75151039  1
  Hf  Hf23  1  0.74993157  0.24947249  0.49979938  1
  Hf  Hf24  1  0.49910907  0.50011326  0.99990400  1
  Hf  Hf25  1  0.50078807  0.75007706  0.24993390  1
  Hf  Hf26  1  0.74982824  0.49987877  0.24956277  1
  Hf  Hf27  1  0.75000075  0.75087617  0.99995387  1
  Hf  Hf28  1  0.49943953  0.49980439  0.49999260  1
  Hf  Hf29  1  0.49996286  0.74945400  0.75022278  1
  Hf  Hf30  1  0.74999004  0.50008241  0.75048971  1
  Hf  Hf31  1  0.74824492  0.75064505  0.50002770  1
  C  C32  1  0.24917391  0.24998979  0.25103776  1
  C  C33  1  0.24986643  0.99907336  0.00082735  1
  C  C34  1  0.99924600  0.25004447  0.00085719  1
  C  C35  1  0.25047871  0.24995804  0.74899046  1
  C  C36  1  0.24909191  0.99820647  0.49912485  1
  C  C37  1  0.99912722  0.25004454  0.49917014  1
  C  C38  1  0.99910166  0.99900976  0.74810659  1
  C  C39  1  0.24989542  0.50095587  0.00083625  1
  C  C40  1  0.99990626  0.75002948  0.00170232  1
  C  C41  1  0.99986257  0.50184389  0.25188352  1
  C  C42  1  0.24979917  0.74994996  0.74804920  1
  C  C43  1  0.99910786  0.50100742  0.74816389  1
  C  C44  1  0.75084594  0.25009746  0.25111518  1
  C  C45  1  0.75009502  0.99975654  0.00007718  1
  C  C46  1  0.50078017  0.25000598  0.99948152  1
  C  C47  1  0.50016089  0.99902092  0.25108418  1
  C  C48  1  0.74949888  0.25004953  0.74893653  1
  C  C49  1  0.50086379  0.24997867  0.50049827  1
  C  C50  1  0.75171506  0.74998246  0.25199903  1
  C  C51  1  0.50013802  0.74998487  0.00016650  1
  C  C52  1  0.50020033  0.50099294  0.25109252  1
  C  C53  1  0.75018558  0.74993258  0.74805392  1
  C  C54  1  0.50020966  0.74995515  0.49985843  1
  C  C55  1  0.50086164  0.50032032  0.74897025  1
  N  N56  1  0.99985277  0.99793783  0.25223586  1
  N  N57  1  0.24807702  0.74996737  0.25222444  1
  N  N58  1  0.24886982  0.50202553  0.49900440  1
  N  N59  1  0.99991781  0.75006245  0.49806702  1
  N  N60  1  0.75100729  0.99868825  0.49980257  1
  N  N61  1  0.50093973  0.99967271  0.74876088  1
  N  N62  1  0.75013093  0.50030564  0.00010261  1
  N  N63  1  0.75106014  0.50127543  0.49985936  1
