# generated using pymatgen
data_ZrTi15N16
_symmetry_space_group_name_H-M   'P 1'
_cell_length_a   8.55790468
_cell_length_b   8.55790468
_cell_length_c   8.55685884
_cell_angle_alpha   90.00000000
_cell_angle_beta   90.00000000
_cell_angle_gamma   90.00000000
_symmetry_Int_Tables_number   1
_chemical_formula_structural   ZrTi15N16
_chemical_formula_sum   'Zr2 Ti30 N32'
_cell_volume   626.68493887
_cell_formula_units_Z   2
loop_
 _symmetry_equiv_pos_site_id
 _symmetry_equiv_pos_as_xyz
  1  'x, y, z'
loop_
 _atom_site_type_symbol
 _atom_site_label
 _atom_site_symmetry_multiplicity
 _atom_site_fract_x
 _atom_site_fract_y
 _atom_site_fract_z
 _atom_site_occupancy
  Ti  Ti0  1  0.99692661  0.00000000  0.99639356  1
  Ti  Ti1  1  0.00000000  0.25000000  0.25000000  1
  Ti  Ti2  1  0.25000000  0.25307339  0.99639356  1
  Ti  Ti3  1  0.99692661  0.00000000  0.50360644  1
  Ti  Ti4  1  0.00000000  0.25000000  0.75000000  1
  Ti  Ti5  1  0.25000000  0.00000000  0.75000000  1
  Ti  Ti6  1  0.25000000  0.25307339  0.50360644  1
  Ti  Ti7  1  0.00307339  0.50000000  0.99639356  1
  Ti  Ti8  1  0.00000000  0.75000000  0.25000000  1
  Ti  Ti9  1  0.25000000  0.50000000  0.25000000  1
  Ti  Ti10  1  0.25000000  0.74692661  0.99639356  1
  Ti  Ti11  1  0.00307339  0.50000000  0.50360644  1
  Ti  Ti12  1  0.00000000  0.75000000  0.75000000  1
  Ti  Ti13  1  0.25000000  0.50000000  0.75000000  1
  Ti  Ti14  1  0.25000000  0.74692661  0.50360644  1
  Ti  Ti15  1  0.50307339  0.00000000  0.99639356  1
  Ti  Ti16  1  0.50000000  0.25000000  0.25000000  1
  Ti  Ti17  1  0.75000000  0.00000000  0.25000000  1
  Ti  Ti18  1  0.75000000  0.24692661  0.99639356  1
  Ti  Ti19  1  0.50307339  0.00000000  0.50360644  1
  Ti  Ti20  1  0.50000000  0.25000000  0.75000000  1
  Ti  Ti21  1  0.75000000  0.00000000  0.75000000  1
  Ti  Ti22  1  0.75000000  0.24692661  0.50360644  1
  Ti  Ti23  1  0.49692661  0.50000000  0.99639356  1
  Ti  Ti24  1  0.50000000  0.75000000  0.25000000  1
  Ti  Ti25  1  0.75000000  0.75307339  0.99639356  1
  Ti  Ti26  1  0.49692661  0.50000000  0.50360644  1
  Ti  Ti27  1  0.50000000  0.75000000  0.75000000  1
  Ti  Ti28  1  0.75000000  0.50000000  0.75000000  1
  Ti  Ti29  1  0.75000000  0.75307339  0.50360644  1
  Zr  Zr30  1  0.25000000  0.00000000  0.25000000  1
  Zr  Zr31  1  0.75000000  0.50000000  0.25000000  1
  N  N32  1  0.25000000  0.25624596  0.25000000  1
  N  N33  1  0.25000000  0.00000000  0.99296606  1
  N  N34  1  0.00000000  0.25000000  0.99917937  1
  N  N35  1  0.99375404  0.00000000  0.25000000  1
  N  N36  1  0.25000000  0.25013937  0.75000000  1
  N  N37  1  0.25000000  0.00000000  0.50703394  1
  N  N38  1  0.00000000  0.25000000  0.50082063  1
  N  N39  1  0.99986063  0.00000000  0.75000000  1
  N  N40  1  0.25000000  0.74375404  0.25000000  1
  N  N41  1  0.25000000  0.50000000  0.99913138  1
  N  N42  1  0.00000000  0.75000000  0.99917937  1
  N  N43  1  0.00624596  0.50000000  0.25000000  1
  N  N44  1  0.25000000  0.74986063  0.75000000  1
  N  N45  1  0.25000000  0.50000000  0.50086862  1
  N  N46  1  0.00000000  0.75000000  0.50082063  1
  N  N47  1  0.00013937  0.50000000  0.75000000  1
  N  N48  1  0.75000000  0.24375404  0.25000000  1
  N  N49  1  0.75000000  0.00000000  0.99913138  1
  N  N50  1  0.50000000  0.25000000  0.99917937  1
  N  N51  1  0.50624596  0.00000000  0.25000000  1
  N  N52  1  0.75000000  0.24986063  0.75000000  1
  N  N53  1  0.75000000  0.00000000  0.50086862  1
  N  N54  1  0.50000000  0.25000000  0.50082063  1
  N  N55  1  0.50013937  0.00000000  0.75000000  1
  N  N56  1  0.75000000  0.75624596  0.25000000  1
  N  N57  1  0.75000000  0.50000000  0.99296606  1
  N  N58  1  0.50000000  0.75000000  0.99917937  1
  N  N59  1  0.49375404  0.50000000  0.25000000  1
  N  N60  1  0.75000000  0.75013937  0.75000000  1
  N  N61  1  0.75000000  0.50000000  0.50703394  1
  N  N62  1  0.50000000  0.75000000  0.50082063  1
  N  N63  1  0.49986063  0.50000000  0.75000000  1
