# generated using pymatgen
data_Zr15TiC16
_symmetry_space_group_name_H-M   'P 1'
_cell_length_a   9.38115309
_cell_length_b   9.38071698
_cell_length_c   9.38071698
_cell_angle_alpha   89.99637867
_cell_angle_beta   90.00000000
_cell_angle_gamma   90.00000000
_symmetry_Int_Tables_number   1
_chemical_formula_structural   Zr15TiC16
_chemical_formula_sum   'Zr30 Ti2 C32'
_cell_volume   825.52131061
_cell_formula_units_Z   2
loop_
 _symmetry_equiv_pos_site_id
 _symmetry_equiv_pos_as_xyz
  1  'x, y, z'
loop_
 _atom_site_type_symbol
 _atom_site_label
 _atom_site_symmetry_multiplicity
 _atom_site_fract_x
 _atom_site_fract_y
 _atom_site_fract_z
 _atom_site_occupancy
  Zr  Zr0  1  0.00000000  0.00138119  0.00134475  1
  Zr  Zr1  1  0.24892339  0.00136733  0.24973751  1
  Zr  Zr2  1  0.25000000  0.25129069  0.00129069  1
  Zr  Zr3  1  0.00000000  0.00134352  0.49865648  1
  Zr  Zr4  1  0.00000000  0.25026093  0.75028166  1
  Zr  Zr5  1  0.25000000  0.00025809  0.75025809  1
  Zr  Zr6  1  0.24892339  0.25026249  0.49863267  1
  Zr  Zr7  1  0.00000000  0.49863437  0.00136563  1
  Zr  Zr8  1  0.00000000  0.74971834  0.24973907  1
  Zr  Zr9  1  0.25000000  0.49870931  0.24870931  1
  Zr  Zr10  1  0.25107661  0.74863267  0.00026249  1
  Zr  Zr11  1  0.00000000  0.49865525  0.49861881  1
  Zr  Zr12  1  0.00000000  0.74973035  0.75026965  1
  Zr  Zr13  1  0.25107661  0.49973751  0.75136733  1
  Zr  Zr14  1  0.25000000  0.74974191  0.49974191  1
  Zr  Zr15  1  0.50000000  0.00028166  0.00026093  1
  Zr  Zr16  1  0.50000000  0.25136563  0.24863437  1
  Zr  Zr17  1  0.75107661  0.00136733  0.24973751  1
  Zr  Zr18  1  0.75000000  0.25129069  0.00129069  1
  Zr  Zr19  1  0.50000000  0.00026965  0.49973035  1
  Zr  Zr20  1  0.50000000  0.25134475  0.75138119  1
  Zr  Zr21  1  0.75000000  0.00025809  0.75025809  1
  Zr  Zr22  1  0.75107661  0.25026249  0.49863267  1
  Zr  Zr23  1  0.50000000  0.74861881  0.24865525  1
  Zr  Zr24  1  0.75000000  0.49870931  0.24870931  1
  Zr  Zr25  1  0.74892339  0.74863267  0.00026249  1
  Zr  Zr26  1  0.50000000  0.49973907  0.49971834  1
  Zr  Zr27  1  0.50000000  0.74865648  0.75134352  1
  Zr  Zr28  1  0.74892339  0.49973751  0.75136733  1
  Zr  Zr29  1  0.75000000  0.74974191  0.49974191  1
  Ti  Ti30  1  0.00000000  0.25035305  0.24964695  1
  Ti  Ti31  1  0.50000000  0.49964695  0.00035305  1
  C  C32  1  0.24510476  0.25037407  0.24962593  1
  C  C33  1  0.25009490  0.00039219  0.00038758  1
  C  C34  1  0.00000000  0.25043187  0.00541515  1
  C  C35  1  0.00000000  0.00538289  0.24983187  1
  C  C36  1  0.24990510  0.25038758  0.75039219  1
  C  C37  1  0.24977628  0.00038737  0.49961263  1
  C  C38  1  0.00000000  0.25016813  0.49461711  1
  C  C39  1  0.00000000  0.00046735  0.75016851  1
  C  C40  1  0.24990510  0.74960781  0.24961242  1
  C  C41  1  0.25489524  0.49962593  0.00037407  1
  C  C42  1  0.00000000  0.74950584  0.00047587  1
  C  C43  1  0.00000000  0.49458485  0.24956813  1
  C  C44  1  0.25022372  0.74961263  0.75038737  1
  C  C45  1  0.25009490  0.49961242  0.49960781  1
  C  C46  1  0.00000000  0.74983149  0.49953265  1
  C  C47  1  0.00000000  0.49952413  0.75049416  1
  C  C48  1  0.75489524  0.25037407  0.24962593  1
  C  C49  1  0.74990510  0.00039219  0.00038758  1
  C  C50  1  0.50000000  0.25541515  0.00043187  1
  C  C51  1  0.50000000  0.00049416  0.24952413  1
  C  C52  1  0.75009490  0.25038758  0.75039219  1
  C  C53  1  0.75022372  0.00038737  0.49961263  1
  C  C54  1  0.50000000  0.25047587  0.49950584  1
  C  C55  1  0.50000000  0.00016851  0.75046735  1
  C  C56  1  0.75009490  0.74960781  0.24961242  1
  C  C57  1  0.74510476  0.49962593  0.00037407  1
  C  C58  1  0.50000000  0.74461711  0.00016813  1
  C  C59  1  0.50000000  0.49956813  0.24458485  1
  C  C60  1  0.74977628  0.74961263  0.75038737  1
  C  C61  1  0.74990510  0.49961242  0.49960781  1
  C  C62  1  0.50000000  0.74953265  0.49983149  1
  C  C63  1  0.50000000  0.49983187  0.75538289  1
