# generated using pymatgen
data_HfZr15N16
_symmetry_space_group_name_H-M   'P 1'
_cell_length_a   9.18465138
_cell_length_b   9.18598735
_cell_length_c   9.18598735
_cell_angle_alpha   90.00056778
_cell_angle_beta   90.00000000
_cell_angle_gamma   90.00000000
_symmetry_Int_Tables_number   1
_chemical_formula_structural   HfZr15N16
_chemical_formula_sum   'Hf2 Zr30 N32'
_cell_volume   775.02259223
_cell_formula_units_Z   2
loop_
 _symmetry_equiv_pos_site_id
 _symmetry_equiv_pos_as_xyz
  1  'x, y, z'
loop_
 _atom_site_type_symbol
 _atom_site_label
 _atom_site_symmetry_multiplicity
 _atom_site_fract_x
 _atom_site_fract_y
 _atom_site_fract_z
 _atom_site_occupancy
  Zr  Zr0  1  0.00000000  0.99972622  0.99967934  1
  Zr  Zr1  1  0.25055965  0.99957151  0.24995771  1
  Zr  Zr2  1  0.25000000  0.24949039  0.99949039  1
  Zr  Zr3  1  0.00000000  0.99958023  0.50041977  1
  Zr  Zr4  1  0.00000000  0.24991481  0.74994801  1
  Zr  Zr5  1  0.25000000  0.00007484  0.75007484  1
  Zr  Zr6  1  0.25055965  0.25004229  0.50042849  1
  Zr  Zr7  1  0.00000000  0.50051894  0.99948106  1
  Zr  Zr8  1  0.00000000  0.75005199  0.25008519  1
  Zr  Zr9  1  0.25000000  0.50050961  0.25050961  1
  Zr  Zr10  1  0.24944035  0.75042849  0.00004229  1
  Zr  Zr11  1  0.00000000  0.50032066  0.50027378  1
  Zr  Zr12  1  0.00000000  0.74984047  0.75015953  1
  Zr  Zr13  1  0.24944035  0.49995771  0.74957151  1
  Zr  Zr14  1  0.25000000  0.74992516  0.49992516  1
  Zr  Zr15  1  0.50000000  0.99994801  0.99991481  1
  Zr  Zr16  1  0.50000000  0.24948106  0.25051894  1
  Zr  Zr17  1  0.74944035  0.99957151  0.24995771  1
  Zr  Zr18  1  0.75000000  0.24949039  0.99949039  1
  Zr  Zr19  1  0.50000000  0.00015953  0.49984047  1
  Zr  Zr20  1  0.50000000  0.24967934  0.74972622  1
  Zr  Zr21  1  0.75000000  0.00007484  0.75007484  1
  Zr  Zr22  1  0.74944035  0.25004229  0.50042849  1
  Zr  Zr23  1  0.50000000  0.75027378  0.25032066  1
  Zr  Zr24  1  0.75000000  0.50050961  0.25050961  1
  Zr  Zr25  1  0.75055965  0.75042849  0.00004229  1
  Zr  Zr26  1  0.50000000  0.50008519  0.50005199  1
  Zr  Zr27  1  0.50000000  0.75041977  0.74958023  1
  Zr  Zr28  1  0.75055965  0.49995771  0.74957151  1
  Zr  Zr29  1  0.75000000  0.74992516  0.49992516  1
  Hf  Hf30  1  0.00000000  0.25017679  0.24982321  1
  Hf  Hf31  1  0.50000000  0.49982321  0.00017679  1
  N  N32  1  0.24596624  0.24987881  0.25012119  1
  N  N33  1  0.25009034  0.99985280  0.99992641  1
  N  N34  1  0.00000000  0.25011926  0.00374802  1
  N  N35  1  0.00000000  0.00405751  0.25003248  1
  N  N36  1  0.24990966  0.24992641  0.74985280  1
  N  N37  1  0.25018881  0.99988168  0.50011832  1
  N  N38  1  0.00000000  0.24996752  0.49594249  1
  N  N39  1  0.00000000  0.99984774  0.75019624  1
  N  N40  1  0.24990966  0.75014720  0.25007359  1
  N  N41  1  0.25403376  0.50012119  0.99987881  1
  N  N42  1  0.00000000  0.75016025  0.00017802  1
  N  N43  1  0.00000000  0.49625198  0.24988074  1
  N  N44  1  0.24981119  0.75011832  0.74988168  1
  N  N45  1  0.25009034  0.50007359  0.50014720  1
  N  N46  1  0.00000000  0.74980376  0.50015226  1
  N  N47  1  0.00000000  0.49982198  0.74983975  1
  N  N48  1  0.75403376  0.24987881  0.25012119  1
  N  N49  1  0.74990966  0.99985280  0.99992641  1
  N  N50  1  0.50000000  0.25374802  0.00011926  1
  N  N51  1  0.50000000  0.99983975  0.24982198  1
  N  N52  1  0.75009034  0.24992641  0.74985280  1
  N  N53  1  0.74981119  0.99988168  0.50011832  1
  N  N54  1  0.50000000  0.25017802  0.50016025  1
  N  N55  1  0.50000000  0.00019624  0.74984774  1
  N  N56  1  0.75009034  0.75014720  0.25007359  1
  N  N57  1  0.74596624  0.50012119  0.99987881  1
  N  N58  1  0.50000000  0.74594249  0.99996752  1
  N  N59  1  0.50000000  0.49988074  0.24625198  1
  N  N60  1  0.75018881  0.75011832  0.74988168  1
  N  N61  1  0.74990966  0.50007359  0.50014720  1
  N  N62  1  0.50000000  0.75015226  0.49980376  1
  N  N63  1  0.50000000  0.50003248  0.75405751  1
