# generated using pymatgen
data_HfTi15C16
_symmetry_space_group_name_H-M   'P 1'
_cell_length_a   8.71278730
_cell_length_b   8.71373317
_cell_length_c   8.71373318
_cell_angle_alpha   89.99740129
_cell_angle_beta   90.00000000
_cell_angle_gamma   90.00000000
_symmetry_Int_Tables_number   1
_chemical_formula_structural   HfTi15C16
_chemical_formula_sum   'Hf2 Ti30 C32'
_cell_volume   661.55449686
_cell_formula_units_Z   2
loop_
 _symmetry_equiv_pos_site_id
 _symmetry_equiv_pos_as_xyz
  1  'x, y, z'
loop_
 _atom_site_type_symbol
 _atom_site_label
 _atom_site_symmetry_multiplicity
 _atom_site_fract_x
 _atom_site_fract_y
 _atom_site_fract_z
 _atom_site_occupancy
  Ti  Ti0  1  0.00000000  0.99837629  0.99835372  1
  Ti  Ti1  1  0.25135610  0.99848614  0.25025718  1
  Ti  Ti2  1  0.25000000  0.24824711  0.99824711  1
  Ti  Ti3  1  0.00000000  0.99846807  0.50153193  1
  Ti  Ti4  1  0.00000000  0.24920246  0.74935296  1
  Ti  Ti5  1  0.25000000  0.99925416  0.74925416  1
  Ti  Ti6  1  0.25135610  0.24974282  0.50151386  1
  Ti  Ti7  1  0.00000000  0.50149224  0.99850776  1
  Ti  Ti8  1  0.00000000  0.75064704  0.25079754  1
  Ti  Ti9  1  0.25000000  0.50175289  0.25175289  1
  Ti  Ti10  1  0.24864390  0.75151386  0.99974282  1
  Ti  Ti11  1  0.00000000  0.50164628  0.50162371  1
  Ti  Ti12  1  0.00000000  0.75019835  0.74980165  1
  Ti  Ti13  1  0.24864390  0.50025718  0.74848614  1
  Ti  Ti14  1  0.25000000  0.75074584  0.50074584  1
  Ti  Ti15  1  0.50000000  0.99935296  0.99920246  1
  Ti  Ti16  1  0.50000000  0.24850776  0.25149224  1
  Ti  Ti17  1  0.74864390  0.99848614  0.25025718  1
  Ti  Ti18  1  0.75000000  0.24824711  0.99824711  1
  Ti  Ti19  1  0.50000000  0.99980165  0.50019835  1
  Ti  Ti20  1  0.50000000  0.24835372  0.74837629  1
  Ti  Ti21  1  0.75000000  0.99925416  0.74925416  1
  Ti  Ti22  1  0.74864390  0.24974282  0.50151386  1
  Ti  Ti23  1  0.50000000  0.75162371  0.25164628  1
  Ti  Ti24  1  0.75000000  0.50175289  0.25175289  1
  Ti  Ti25  1  0.75135610  0.75151386  0.99974282  1
  Ti  Ti26  1  0.50000000  0.50079754  0.50064704  1
  Ti  Ti27  1  0.50000000  0.75153193  0.74846807  1
  Ti  Ti28  1  0.75135610  0.50025718  0.74848614  1
  Ti  Ti29  1  0.75000000  0.75074584  0.50074584  1
  Hf  Hf30  1  0.00000000  0.24975621  0.25024379  1
  Hf  Hf31  1  0.50000000  0.50024379  0.99975621  1
  C  C32  1  0.25535427  0.24944054  0.25055946  1
  C  C33  1  0.24991003  0.99939843  0.99936696  1
  C  C34  1  0.00000000  0.24916803  0.99423861  1
  C  C35  1  0.00000000  0.99426118  0.25032849  1
  C  C36  1  0.25008997  0.24936696  0.74939843  1
  C  C37  1  0.25025987  0.99952033  0.50047967  1
  C  C38  1  0.00000000  0.24967151  0.50573882  1
  C  C39  1  0.00000000  0.99926747  0.74966087  1
  C  C40  1  0.25008997  0.75060157  0.25063304  1
  C  C41  1  0.24464573  0.50055946  0.99944054  1
  C  C42  1  0.00000000  0.75056038  0.99946506  1
  C  C43  1  0.00000000  0.50576139  0.25083197  1
  C  C44  1  0.24974013  0.75047967  0.74952033  1
  C  C45  1  0.24991003  0.50063304  0.50060157  1
  C  C46  1  0.00000000  0.75033913  0.50073253  1
  C  C47  1  0.00000000  0.50053494  0.74943962  1
  C  C48  1  0.74464573  0.24944054  0.25055946  1
  C  C49  1  0.75008997  0.99939843  0.99936696  1
  C  C50  1  0.50000000  0.24423861  0.99916803  1
  C  C51  1  0.50000000  0.99943962  0.25053494  1
  C  C52  1  0.74991003  0.24936696  0.74939843  1
  C  C53  1  0.74974013  0.99952033  0.50047967  1
  C  C54  1  0.50000000  0.24946506  0.50056038  1
  C  C55  1  0.50000000  0.99966087  0.74926747  1
  C  C56  1  0.74991003  0.75060157  0.25063304  1
  C  C57  1  0.75535427  0.50055946  0.99944054  1
  C  C58  1  0.50000000  0.75573882  0.99967151  1
  C  C59  1  0.50000000  0.50083197  0.25576139  1
  C  C60  1  0.75025987  0.75047967  0.74952033  1
  C  C61  1  0.75008997  0.50063304  0.50060157  1
  C  C62  1  0.50000000  0.75073253  0.50033913  1
  C  C63  1  0.50000000  0.50032849  0.74426118  1
