# generated using pymatgen
data_Hf3ZrC4
_symmetry_space_group_name_H-M   'P 1'
_cell_length_a   9.32484514
_cell_length_b   9.32539990
_cell_length_c   9.32499021
_cell_angle_alpha   90.00099477
_cell_angle_beta   90.00000000
_cell_angle_gamma   90.00000000
_symmetry_Int_Tables_number   1
_chemical_formula_structural   Hf3ZrC4
_chemical_formula_sum   'Hf24 Zr8 C32'
_cell_volume   810.88165884
_cell_formula_units_Z   8
loop_
 _symmetry_equiv_pos_site_id
 _symmetry_equiv_pos_as_xyz
  1  'x, y, z'
loop_
 _atom_site_type_symbol
 _atom_site_label
 _atom_site_symmetry_multiplicity
 _atom_site_fract_x
 _atom_site_fract_y
 _atom_site_fract_z
 _atom_site_occupancy
  Hf  Hf0  1  0.99968882  0.00061757  0.00030296  1
  Hf  Hf1  1  0.99986373  0.24967950  0.24967844  1
  Hf  Hf2  1  0.24999999  0.00045787  0.24967052  1
  Hf  Hf3  1  0.24999998  0.24968427  0.00031625  1
  Hf  Hf4  1  0.99968931  0.00062046  0.49968557  1
  Hf  Hf5  1  0.99949222  0.24968168  0.75032478  1
  Hf  Hf6  1  0.25000008  0.00080016  0.75032443  1
  Hf  Hf7  1  0.99968170  0.49937205  0.00030948  1
  Hf  Hf8  1  0.99985780  0.75033461  0.24968044  1
  Hf  Hf9  1  0.25000001  0.49953897  0.24968610  1
  Hf  Hf10  1  0.99968363  0.49937316  0.49969206  1
  Hf  Hf11  1  0.50031120  0.00061757  0.00030292  1
  Hf  Hf12  1  0.50013632  0.24967948  0.24967848  1
  Hf  Hf13  1  0.75000001  0.00045098  0.24967528  1
  Hf  Hf14  1  0.75000000  0.24967989  0.99995441  1
  Hf  Hf15  1  0.50031065  0.00062046  0.49968563  1
  Hf  Hf16  1  0.50050776  0.24968163  0.75032477  1
  Hf  Hf17  1  0.74999995  0.00081993  0.75031709  1
  Hf  Hf18  1  0.75000003  0.24969074  0.50005963  1
  Hf  Hf19  1  0.50031832  0.49937208  0.00030949  1
  Hf  Hf20  1  0.50014219  0.75033458  0.24968043  1
  Hf  Hf21  1  0.74999999  0.75033062  0.00031544  1
  Hf  Hf22  1  0.50031635  0.49937315  0.49969202  1
  Hf  Hf23  1  0.75000002  0.49914961  0.75031667  1
  C  C24  1  0.24999990  0.24973441  0.24847413  1
  C  C25  1  0.24999999  0.00152996  0.00019089  1
  C  C26  1  0.99974332  0.24989610  0.00017248  1
  C  C27  1  -0.00002421  0.00027774  0.24988459  1
  C  C28  1  0.25000001  0.24854564  0.75150665  1
  C  C29  1  0.25000002  0.00034183  0.49978757  1
  C  C30  1  0.99857120  0.24989223  0.49983733  1
  C  C31  1  0.99979483  0.00162662  0.75010159  1
  C  C32  1  0.25000009  0.75028696  0.24973932  1
  C  C33  1  0.25000000  0.49841527  0.00138590  1
  C  C34  1  0.99855033  0.75011147  0.00153319  1
  C  C35  1  0.00113647  0.49971925  0.24988498  1
  C  C36  1  0.25000003  0.75161900  0.75024655  1
  C  C37  1  0.25000005  0.49965780  0.49860901  1
  C  C38  1  0.99975850  0.75010539  0.49842779  1
  C  C39  1  0.99860986  0.49833362  0.75010949  1
  C  C40  1  0.75000010  0.24847339  0.24973507  1
  C  C41  1  0.75000003  0.00037447  0.00001414  1
  C  C42  1  0.50025671  0.24989614  0.00017238  1
  C  C43  1  0.50002421  0.00027759  0.24988463  1
  C  C44  1  0.75000001  0.24971911  0.75027305  1
  C  C45  1  0.75000000  0.00153513  0.49998476  1
  C  C46  1  0.50142881  0.24989227  0.49983744  1
  C  C47  1  0.50020517  0.00162661  0.75010157  1
  C  C48  1  0.74999993  0.75152805  0.24852684  1
  C  C49  1  0.74999999  0.49961443  0.99886098  1
  C  C50  1  0.50144969  0.75011139  0.00153325  1
  C  C51  1  0.49886354  0.49971942  0.24988503  1
  C  C52  1  0.74999997  0.75029501  0.75157905  1
  C  C53  1  0.74999998  0.49842500  0.50119685  1
  C  C54  1  0.50024150  0.75010538  0.49842772  1
  C  C55  1  0.50139013  0.49833361  0.75010947  1
  Zr  Zr56  1  0.24999997  0.24969930  0.49969588  1
  Zr  Zr57  1  0.24999997  0.75031210  0.00063426  1
  Zr  Zr58  1  0.99952042  0.75031597  0.75031799  1
  Zr  Zr59  1  0.24999983  0.49918418  0.75032406  1
  Zr  Zr60  1  0.24999993  0.75030766  0.49933607  1
  Zr  Zr61  1  0.75000000  0.49956565  0.24969002  1
  Zr  Zr62  1  0.50047954  0.75031610  0.75031803  1
  Zr  Zr63  1  0.75000011  0.75031779  0.49968665  1
