# generated using pymatgen
data_HfTi15N16
_symmetry_space_group_name_H-M   'P 1'
_cell_length_a   8.54497357
_cell_length_b   8.54740473
_cell_length_c   8.54740473
_cell_angle_alpha   90.00559108
_cell_angle_beta   90.00000000
_cell_angle_gamma   90.00000000
_symmetry_Int_Tables_number   1
_chemical_formula_structural   HfTi15N16
_chemical_formula_sum   'Hf2 Ti30 N32'
_cell_volume   624.27976665
_cell_formula_units_Z   2
loop_
 _symmetry_equiv_pos_site_id
 _symmetry_equiv_pos_as_xyz
  1  'x, y, z'
loop_
 _atom_site_type_symbol
 _atom_site_label
 _atom_site_symmetry_multiplicity
 _atom_site_fract_x
 _atom_site_fract_y
 _atom_site_fract_z
 _atom_site_occupancy
  Ti  Ti0  1  0.00000000  0.99637372  0.99575485  1
  Ti  Ti1  1  0.25393030  0.99583739  0.25023972  1
  Ti  Ti2  1  0.25000000  0.24518368  0.99518368  1
  Ti  Ti3  1  0.00000000  0.99603273  0.50396727  1
  Ti  Ti4  1  0.00000000  0.25063721  0.74952961  1
  Ti  Ti5  1  0.25000000  0.99919392  0.74919392  1
  Ti  Ti6  1  0.25393030  0.24976028  0.50416261  1
  Ti  Ti7  1  0.00000000  0.50381496  0.99618504  1
  Ti  Ti8  1  0.00000000  0.75047039  0.24936279  1
  Ti  Ti9  1  0.25000000  0.50481632  0.25481632  1
  Ti  Ti10  1  0.24606970  0.75416261  0.99976028  1
  Ti  Ti11  1  0.00000000  0.50424515  0.50362628  1
  Ti  Ti12  1  0.00000000  0.75017734  0.74982266  1
  Ti  Ti13  1  0.24606970  0.50023972  0.74583739  1
  Ti  Ti14  1  0.25000000  0.75080608  0.50080608  1
  Ti  Ti15  1  0.50000000  0.99952961  0.00063721  1
  Ti  Ti16  1  0.50000000  0.24618504  0.25381496  1
  Ti  Ti17  1  0.74606970  0.99583739  0.25023972  1
  Ti  Ti18  1  0.75000000  0.24518368  0.99518368  1
  Ti  Ti19  1  0.50000000  0.99982266  0.50017734  1
  Ti  Ti20  1  0.50000000  0.24575485  0.74637372  1
  Ti  Ti21  1  0.75000000  0.99919392  0.74919392  1
  Ti  Ti22  1  0.74606970  0.24976028  0.50416261  1
  Ti  Ti23  1  0.50000000  0.75362628  0.25424515  1
  Ti  Ti24  1  0.75000000  0.50481632  0.25481632  1
  Ti  Ti25  1  0.75393030  0.75416261  0.99976028  1
  Ti  Ti26  1  0.50000000  0.49936279  0.50047039  1
  Ti  Ti27  1  0.50000000  0.75396727  0.74603273  1
  Ti  Ti28  1  0.75393030  0.50023972  0.74583739  1
  Ti  Ti29  1  0.75000000  0.75080608  0.50080608  1
  Hf  Hf30  1  0.00000000  0.24957275  0.25042725  1
  Hf  Hf31  1  0.50000000  0.50042725  0.99957275  1
  N  N32  1  0.25369855  0.24968261  0.25031739  1
  N  N33  1  0.25022612  0.99935614  0.99933186  1
  N  N34  1  0.00000000  0.24974815  0.99591387  1
  N  N35  1  0.00000000  0.99602200  0.25021307  1
  N  N36  1  0.24977388  0.24933186  0.74935614  1
  N  N37  1  0.25012795  0.99968611  0.50031389  1
  N  N38  1  0.00000000  0.24978693  0.50397800  1
  N  N39  1  0.00000000  0.99983806  0.74938325  1
  N  N40  1  0.24977388  0.75064386  0.25066814  1
  N  N41  1  0.24630145  0.50031739  0.99968261  1
  N  N42  1  0.00000000  0.75020554  0.99964662  1
  N  N43  1  0.00000000  0.50408613  0.25025185  1
  N  N44  1  0.24987205  0.75031389  0.74968611  1
  N  N45  1  0.25022612  0.50066814  0.50064386  1
  N  N46  1  0.00000000  0.75061675  0.50016194  1
  N  N47  1  0.00000000  0.50035338  0.74979446  1
  N  N48  1  0.74630145  0.24968261  0.25031739  1
  N  N49  1  0.74977388  0.99935614  0.99933186  1
  N  N50  1  0.50000000  0.24591387  0.99974815  1
  N  N51  1  0.50000000  0.99979446  0.25035338  1
  N  N52  1  0.75022612  0.24933186  0.74935614  1
  N  N53  1  0.74987205  0.99968611  0.50031389  1
  N  N54  1  0.50000000  0.24964662  0.50020554  1
  N  N55  1  0.50000000  0.99938325  0.74983806  1
  N  N56  1  0.75022612  0.75064386  0.25066814  1
  N  N57  1  0.75369855  0.50031739  0.99968261  1
  N  N58  1  0.50000000  0.75397800  0.99978693  1
  N  N59  1  0.50000000  0.50025185  0.25408613  1
  N  N60  1  0.75012795  0.75031389  0.74968611  1
  N  N61  1  0.74977388  0.50066814  0.50064386  1
  N  N62  1  0.50000000  0.75016194  0.50061675  1
  N  N63  1  0.50000000  0.50021307  0.74602200  1
