# generated using pymatgen
data_HfZr3C4
_symmetry_space_group_name_H-M   'P 1'
_cell_length_a   9.38868156
_cell_length_b   9.38869515
_cell_length_c   9.38859161
_cell_angle_alpha   90.00022647
_cell_angle_beta   90.00020365
_cell_angle_gamma   89.99939407
_symmetry_Int_Tables_number   1
_chemical_formula_structural   HfZr3C4
_chemical_formula_sum   'Hf8 Zr24 C32'
_cell_volume   827.58058815
_cell_formula_units_Z   8
loop_
 _symmetry_equiv_pos_site_id
 _symmetry_equiv_pos_as_xyz
  1  'x, y, z'
loop_
 _atom_site_type_symbol
 _atom_site_label
 _atom_site_symmetry_multiplicity
 _atom_site_fract_x
 _atom_site_fract_y
 _atom_site_fract_z
 _atom_site_occupancy
  Zr  Zr0  1  0.00022206  0.99989254  0.00001070  1
  Zr  Zr1  1  0.00023331  0.24958706  0.25048052  1
  Zr  Zr2  1  0.24961095  0.24959964  0.99999567  1
  Zr  Zr3  1  0.00005942  0.24942825  0.74950923  1
  Zr  Zr4  1  0.24943453  0.49992792  0.25013585  1
  Zr  Zr5  1  0.24944298  0.75037899  0.00017038  1
  Zr  Zr6  1  0.00006050  0.49976173  0.49982602  1
  Zr  Zr7  1  0.00005958  0.75056682  0.74984850  1
  Zr  Zr8  1  0.24959649  0.49973780  0.74984398  1
  Zr  Zr9  1  0.24943545  0.75076484  0.49983459  1
  Zr  Zr10  1  0.49977204  0.00005957  0.99983814  1
  Zr  Zr11  1  0.49974939  0.24961722  0.25048265  1
  Zr  Zr12  1  0.75057583  0.00007233  0.25051441  1
  Zr  Zr13  1  0.75038195  0.24977789  0.99980914  1
  Zr  Zr14  1  0.49976199  0.00038056  0.50015941  1
  Zr  Zr15  1  0.49992365  0.24944769  0.74951196  1
  Zr  Zr16  1  0.49992097  0.49992993  0.99998716  1
  Zr  Zr17  1  0.49974044  0.75038456  0.25013637  1
  Zr  Zr18  1  0.75055999  0.49992780  0.25013929  1
  Zr  Zr19  1  0.75055331  0.75021207  0.99999396  1
  Zr  Zr20  1  0.49992409  0.49960794  0.49999577  1
  Zr  Zr21  1  0.49992469  0.75055788  0.74985821  1
  Zr  Zr22  1  0.75037994  0.49974025  0.74984004  1
  Zr  Zr23  1  0.75055217  0.75058704  0.50000562  1
  Hf  Hf24  1  0.24942462  0.00006722  0.25053213  1
  Hf  Hf25  1  0.00022969  0.00024617  0.50000295  1
  Hf  Hf26  1  0.24958697  0.00024004  0.74948034  1
  Hf  Hf27  1  0.24958339  0.24925172  0.49999728  1
  Hf  Hf28  1  0.00005934  0.50009826  0.00016237  1
  Hf  Hf29  1  0.00024487  0.75040946  0.25015258  1
  Hf  Hf30  1  0.75040661  0.00025073  0.74949602  1
  Hf  Hf31  1  0.75040073  0.24942891  0.50017712  1
  C  C32  1  0.24973603  0.24835905  0.25157728  1
  C  C33  1  0.24972490  0.00006962  0.99995379  1
  C  C34  1  0.00004702  0.25110855  0.00005728  1
  C  C35  1  0.00139658  0.99872828  0.25136665  1
  C  C36  1  0.24982264  0.24825618  0.74842469  1
  C  C37  1  0.24851279  0.00142198  0.50008367  1
  C  C38  1  0.00005602  0.24855855  0.49993866  1
  C  C39  1  0.00011142  0.00001433  0.74861622  1
  C  C40  1  0.24844699  0.75164260  0.25017310  1
  C  C41  1  0.24846884  0.49990410  0.99999936  1
  C  C42  1  0.00006410  0.74892461  0.00138177  1
  C  C43  1  0.00013553  0.50133663  0.24885874  1
  C  C44  1  0.24973095  0.75180947  0.74980952  1
  C  C45  1  0.24969798  0.49841008  0.49998388  1
  C  C46  1  0.00006277  0.75146282  0.49865962  1
  C  C47  1  0.00004388  0.50002291  0.75116647  1
  C  C48  1  0.75023890  0.24967679  0.25166151  1
  C  C49  1  0.75028907  0.00014212  0.99859020  1
  C  C50  1  0.49997430  0.24996579  0.99998828  1
  C  C51  1  0.49851959  0.99997841  0.25018657  1
  C  C52  1  0.75015551  0.24838132  0.74842352  1
  C  C53  1  0.75147285  0.00145562  0.50133999  1
  C  C54  1  0.49996417  0.24978121  0.50000455  1
  C  C55  1  0.49991901  0.00006044  0.74984174  1
  C  C56  1  0.75163689  0.75031905  0.25016735  1
  C  C57  1  0.75152246  0.49990684  0.99994951  1
  C  C58  1  0.49999491  0.75004243  0.00002550  1
  C  C59  1  0.49994692  0.50001114  0.25001028  1
  C  C60  1  0.75025531  0.75171800  0.74980825  1
  C  C61  1  0.75028621  0.49843261  0.50008159  1
  C  C62  1  0.49996240  0.75020619  0.49996254  1
  C  C63  1  0.49999112  0.49995137  0.74997956  1
