# generated using pymatgen
data_HfTi3C4
_symmetry_space_group_name_H-M   'P 1'
_cell_length_a   8.84307626
_cell_length_b   8.84479033
_cell_length_c   8.84406389
_cell_angle_alpha   89.95978127
_cell_angle_beta   90.00907572
_cell_angle_gamma   89.97356286
_symmetry_Int_Tables_number   1
_chemical_formula_structural   HfTi3C4
_chemical_formula_sum   'Hf8 Ti24 C32'
_cell_volume   691.73957882
_cell_formula_units_Z   8
loop_
 _symmetry_equiv_pos_site_id
 _symmetry_equiv_pos_as_xyz
  1  'x, y, z'
loop_
 _atom_site_type_symbol
 _atom_site_label
 _atom_site_symmetry_multiplicity
 _atom_site_fract_x
 _atom_site_fract_y
 _atom_site_fract_z
 _atom_site_occupancy
  Ti  Ti0  1  0.00320183  0.00126827  0.99799613  1
  Ti  Ti1  1  0.25040239  0.99907331  0.25158442  1
  Ti  Ti2  1  0.25012804  0.25021848  0.99687904  1
  Ti  Ti3  1  0.00373463  0.99917633  0.50133123  1
  Ti  Ti4  1  0.00362713  0.24914458  0.75040640  1
  Ti  Ti5  1  0.25035889  0.00121272  0.74828131  1
  Ti  Ti6  1  0.25140308  0.24913878  0.50252717  1
  Ti  Ti7  1  0.00263101  0.49879889  0.99904597  1
  Ti  Ti8  1  0.00271794  0.75015092  0.25166000  1
  Ti  Ti9  1  0.25039379  0.75015324  0.99955424  1
  Ti  Ti10  1  0.00252466  0.50139167  0.50016372  1
  Ti  Ti11  1  0.25134513  0.49913584  0.74949273  1
  Ti  Ti12  1  0.25194598  0.75128791  0.50034344  1
  Ti  Ti13  1  0.49784616  0.25101374  0.25033079  1
  Ti  Ti14  1  0.74942794  0.25065003  0.99867601  1
  Ti  Ti15  1  0.49633676  0.99902712  0.50154637  1
  Ti  Ti16  1  0.49610480  0.25012974  0.74941693  1
  Ti  Ti17  1  0.74954798  0.00074456  0.74895083  1
  Ti  Ti18  1  0.49738317  0.49893234  0.99933638  1
  Ti  Ti19  1  0.49789288  0.74907576  0.25301077  1
  Ti  Ti20  1  0.74858535  0.50072024  0.25069662  1
  Ti  Ti21  1  0.49741823  0.50107611  0.50071549  1
  Ti  Ti22  1  0.49688289  0.75012650  0.74727996  1
  Ti  Ti23  1  0.74828764  0.74972110  0.49964570  1
  Hf  Hf24  1  0.00196690  0.24992583  0.24896623  1
  Hf  Hf25  1  0.25148216  0.50120619  0.25015630  1
  Hf  Hf26  1  0.00314524  0.75118868  0.74855301  1
  Hf  Hf27  1  0.49683610  0.00106797  0.99867354  1
  Hf  Hf28  1  0.74970461  0.99850706  0.25177895  1
  Hf  Hf29  1  0.74845919  0.24978179  0.50152180  1
  Hf  Hf30  1  0.74980184  0.74840573  0.00124488  1
  Hf  Hf31  1  0.74855683  0.49875927  0.74997847  1
  C  C32  1  0.25533555  0.24562348  0.25015477  1
  C  C33  1  0.24504828  0.00036753  0.99884854  1
  C  C34  1  0.00188399  0.25008801  0.99441515  1
  C  C35  1  0.00595669  0.99516204  0.25071771  1
  C  C36  1  0.25057507  0.24975807  0.74961200  1
  C  C37  1  0.25047130  0.99982968  0.50090766  1
  C  C38  1  0.00588462  0.24977246  0.50499547  1
  C  C39  1  0.00217235  0.00502854  0.74930900  1
  C  C40  1  0.25084535  0.75486342  0.25099620  1
  C  C41  1  0.25036548  0.49962113  0.99487511  1
  C  C42  1  0.00605923  0.74990112  0.00406329  1
  C  C43  1  0.99693517  0.50480686  0.25024375  1
  C  C44  1  0.25562042  0.75052294  0.74907945  1
  C  C45  1  0.25076907  0.50045972  0.50491732  1
  C  C46  1  0.00205606  0.75034140  0.49536519  1
  C  C47  1  0.00580504  0.49544188  0.74962069  1
  C  C48  1  0.74511668  0.25446607  0.24591939  1
  C  C49  1  0.75394087  0.00448556  0.99530266  1
  C  C50  1  0.49800865  0.25502735  0.99899271  1
  C  C51  1  0.49412480  0.99960513  0.25522494  1
  C  C52  1  0.74923422  0.24513768  0.75467799  1
  C  C53  1  0.74943752  0.99505523  0.50543734  1
  C  C54  1  0.49375431  0.25013819  0.50093249  1
  C  C55  1  0.49778402  0.00036985  0.74456554  1
  C  C56  1  0.74920585  0.74489997  0.25563102  1
  C  C57  1  0.74944550  0.49473780  0.00434793  1
  C  C58  1  0.49399747  0.74524556  0.99986107  1
  C  C59  1  0.50351014  0.50026773  0.25070318  1
  C  C60  1  0.74533328  0.75437193  0.74506427  1
  C  C61  1  0.74913159  0.50474926  0.49581337  1
  C  C62  1  0.49827634  0.74992926  0.50031569  1
  C  C63  1  0.49383395  0.49971446  0.74934428  1
