# generated using pymatgen
data_Zr15TiN16
_symmetry_space_group_name_H-M   'P 1'
_cell_length_a   9.15497841
_cell_length_b   9.16001467
_cell_length_c   9.16001467
_cell_angle_alpha   90.00036385
_cell_angle_beta   90.00000000
_cell_angle_gamma   90.00000000
_symmetry_Int_Tables_number   1
_chemical_formula_structural   Zr15TiN16
_chemical_formula_sum   'Zr30 Ti2 N32'
_cell_volume   768.15641692
_cell_formula_units_Z   2
loop_
 _symmetry_equiv_pos_site_id
 _symmetry_equiv_pos_as_xyz
  1  'x, y, z'
loop_
 _atom_site_type_symbol
 _atom_site_label
 _atom_site_symmetry_multiplicity
 _atom_site_fract_x
 _atom_site_fract_y
 _atom_site_fract_z
 _atom_site_occupancy
  Zr  Zr0  1  0.00000000  0.00179677  0.00176543  1
  Zr  Zr1  1  0.24865124  0.00169605  0.24958041  1
  Zr  Zr2  1  0.25000000  0.25160477  0.00160477  1
  Zr  Zr3  1  0.00000000  0.00178102  0.49821898  1
  Zr  Zr4  1  0.00000000  0.25045616  0.75065072  1
  Zr  Zr5  1  0.25000000  0.00026201  0.75026201  1
  Zr  Zr6  1  0.24865124  0.25041959  0.49830395  1
  Zr  Zr7  1  0.00000000  0.49817732  0.00182268  1
  Zr  Zr8  1  0.00000000  0.74934928  0.24954384  1
  Zr  Zr9  1  0.25000000  0.49839523  0.24839523  1
  Zr  Zr10  1  0.25134876  0.74830395  0.00041959  1
  Zr  Zr11  1  0.00000000  0.49823457  0.49820323  1
  Zr  Zr12  1  0.00000000  0.74961197  0.75038803  1
  Zr  Zr13  1  0.25134876  0.49958041  0.75169605  1
  Zr  Zr14  1  0.25000000  0.74973799  0.49973799  1
  Zr  Zr15  1  0.50000000  0.00065072  0.00045616  1
  Zr  Zr16  1  0.50000000  0.25182268  0.24817732  1
  Zr  Zr17  1  0.75134876  0.00169605  0.24958041  1
  Zr  Zr18  1  0.75000000  0.25160477  0.00160477  1
  Zr  Zr19  1  0.50000000  0.00038803  0.49961197  1
  Zr  Zr20  1  0.50000000  0.25176543  0.75179677  1
  Zr  Zr21  1  0.75000000  0.00026201  0.75026201  1
  Zr  Zr22  1  0.75134876  0.25041959  0.49830395  1
  Zr  Zr23  1  0.50000000  0.74820323  0.24823457  1
  Zr  Zr24  1  0.75000000  0.49839523  0.24839523  1
  Zr  Zr25  1  0.74865124  0.74830395  0.00041959  1
  Zr  Zr26  1  0.50000000  0.49954384  0.49934928  1
  Zr  Zr27  1  0.50000000  0.74821898  0.75178102  1
  Zr  Zr28  1  0.74865124  0.49958041  0.75169605  1
  Zr  Zr29  1  0.75000000  0.74973799  0.49973799  1
  Ti  Ti30  1  0.00000000  0.25091088  0.24908912  1
  Ti  Ti31  1  0.50000000  0.49908912  0.00091088  1
  N  N32  1  0.24541428  0.25031082  0.24968918  1
  N  N33  1  0.24985135  0.00023712  0.00015511  1
  N  N34  1  0.00000000  0.25019272  0.00505664  1
  N  N35  1  0.00000000  0.00493927  0.24975146  1
  N  N36  1  0.25014865  0.25015511  0.75023712  1
  N  N37  1  0.24990690  0.00035657  0.49964343  1
  N  N38  1  0.00000000  0.25024854  0.49506073  1
  N  N39  1  0.00000000  0.00017874  0.75011998  1
  N  N40  1  0.25014865  0.74976288  0.24984489  1
  N  N41  1  0.25458572  0.49968918  0.00031082  1
  N  N42  1  0.00000000  0.74989130  0.00007293  1
  N  N43  1  0.00000000  0.49494336  0.24980728  1
  N  N44  1  0.25009310  0.74964343  0.75035657  1
  N  N45  1  0.24985135  0.49984489  0.49976288  1
  N  N46  1  0.00000000  0.74988002  0.49982126  1
  N  N47  1  0.00000000  0.49992707  0.75010870  1
  N  N48  1  0.75458572  0.25031082  0.24968918  1
  N  N49  1  0.75014865  0.00023712  0.00015511  1
  N  N50  1  0.50000000  0.25505664  0.00019272  1
  N  N51  1  0.50000000  0.00010870  0.24992707  1
  N  N52  1  0.74985135  0.25015511  0.75023712  1
  N  N53  1  0.75009310  0.00035657  0.49964343  1
  N  N54  1  0.50000000  0.25007293  0.49989130  1
  N  N55  1  0.50000000  0.00011998  0.75017874  1
  N  N56  1  0.74985135  0.74976288  0.24984489  1
  N  N57  1  0.74541428  0.49968918  0.00031082  1
  N  N58  1  0.50000000  0.74506073  0.00024854  1
  N  N59  1  0.50000000  0.49980728  0.24494336  1
  N  N60  1  0.74990690  0.74964343  0.75035657  1
  N  N61  1  0.75014865  0.49984489  0.49976288  1
  N  N62  1  0.50000000  0.74982126  0.49988002  1
  N  N63  1  0.50000000  0.49975146  0.75493927  1
