# generated using pymatgen
data_Hf3ZrN4
_symmetry_space_group_name_H-M   'P 1'
_cell_length_a   9.10164795
_cell_length_b   9.10197047
_cell_length_c   9.10089832
_cell_angle_alpha   90.00051806
_cell_angle_beta   89.98382926
_cell_angle_gamma   90.01825923
_symmetry_Int_Tables_number   1
_chemical_formula_structural   Hf3ZrN4
_chemical_formula_sum   'Hf24 Zr8 N32'
_cell_volume   753.94502244
_cell_formula_units_Z   8
loop_
 _symmetry_equiv_pos_site_id
 _symmetry_equiv_pos_as_xyz
  1  'x, y, z'
loop_
 _atom_site_type_symbol
 _atom_site_label
 _atom_site_symmetry_multiplicity
 _atom_site_fract_x
 _atom_site_fract_y
 _atom_site_fract_z
 _atom_site_occupancy
  Hf  Hf0  1  0.99992224  0.00109720  0.99996701  1
  Hf  Hf1  1  0.00047766  0.24950868  0.24995774  1
  Hf  Hf2  1  0.25060867  0.00003695  0.25088184  1
  Hf  Hf3  1  0.00033196  0.00043669  0.50004055  1
  Hf  Hf4  1  0.25000656  0.00064402  0.74898862  1
  Hf  Hf5  1  0.00090628  0.49899370  0.99894669  1
  Hf  Hf6  1  0.99990856  0.75052296  0.25051127  1
  Hf  Hf7  1  0.25050047  0.50006743  0.25031822  1
  Hf  Hf8  1  0.25050376  0.74962513  0.00000817  1
  Hf  Hf9  1  0.00137365  0.49955114  0.50118000  1
  Hf  Hf10  1  0.00101736  0.74957469  0.74953932  1
  Hf  Hf11  1  0.50007650  0.99997925  0.00056343  1
  Hf  Hf12  1  0.49952193  0.24937092  0.25044516  1
  Hf  Hf13  1  0.75040524  0.24947890  0.00002050  1
  Hf  Hf14  1  0.49903078  0.25001125  0.74949413  1
  Hf  Hf15  1  0.75007335  0.00054811  0.74966414  1
  Hf  Hf16  1  0.75004567  0.24888293  0.49996529  1
  Hf  Hf17  1  0.49908015  0.50001360  0.99996207  1
  Hf  Hf18  1  0.74944145  0.50041439  0.24993591  1
  Hf  Hf19  1  0.74947104  0.75054793  0.00128742  1
  Hf  Hf20  1  0.49855740  0.50030707  0.50004184  1
  Hf  Hf21  1  0.49895432  0.74991310  0.74928280  1
  Hf  Hf22  1  0.75044291  0.49941261  0.75011294  1
  Hf  Hf23  1  0.74933759  0.75098358  0.49874750  1
  Zr  Zr24  1  0.24935087  0.25051864  0.99939814  1
  Zr  Zr25  1  0.00127608  0.25051355  0.75015336  1
  Zr  Zr26  1  0.25001886  0.25000882  0.50065049  1
  Zr  Zr27  1  0.24947828  0.49918461  0.74965773  1
  Zr  Zr28  1  0.25096378  0.75000281  0.49999232  1
  Zr  Zr29  1  0.74912761  0.99940032  0.25031738  1
  Zr  Zr30  1  0.49966160  0.99958142  0.49914589  1
  Zr  Zr31  1  0.50016430  0.75085234  0.25077487  1
  N  N32  1  0.24999099  0.25000704  0.25009703  1
  N  N33  1  0.24991061  0.99651671  0.99995649  1
  N  N34  1  0.99620152  0.25023722  0.00365695  1
  N  N35  1  0.00373022  0.00001220  0.25003230  1
  N  N36  1  0.25413878  0.24595078  0.74992494  1
  N  N37  1  0.24627521  0.00007849  0.49989958  1
  N  N38  1  0.99642815  0.25016685  0.49640015  1
  N  N39  1  0.00042307  0.99645974  0.75002280  1
  N  N40  1  0.24640710  0.75034602  0.24644011  1
  N  N41  1  0.24981256  0.50365781  0.00361450  1
  N  N42  1  0.99981580  0.74991707  0.99996485  1
  N  N43  1  0.00020163  0.49992478  0.25009913  1
  N  N44  1  0.25006596  0.75364221  0.75356300  1
  N  N45  1  0.24992235  0.49992497  0.49625971  1
  N  N46  1  0.99632895  0.74983815  0.50007058  1
  N  N47  1  0.99642194  0.50370937  0.75008011  1
  N  N48  1  0.74972491  0.25350663  0.25001864  1
  N  N49  1  0.74992893  0.99996681  0.99637459  1
  N  N50  1  0.50357234  0.25004226  0.99991007  1
  N  N51  1  0.49581456  0.00392797  0.24611469  1
  N  N52  1  0.74652114  0.24996076  0.74998323  1
  N  N53  1  0.75365024  0.99970068  0.50368681  1
  N  N54  1  0.50364492  0.25366317  0.49997802  1
  N  N55  1  0.49985232  0.99995619  0.75340628  1
  N  N56  1  0.75364248  0.74622399  0.25019592  1
  N  N57  1  0.75014745  0.50010527  0.00003994  1
  N  N58  1  0.50013456  0.75003083  0.99639863  1
  N  N59  1  0.49982574  0.49649691  0.25012742  1
  N  N60  1  0.74990546  0.75006685  0.74996896  1
  N  N61  1  0.75011955  0.50005809  0.49999948  1
  N  N62  1  0.50404873  0.74614205  0.50382467  1
  N  N63  1  0.50335498  0.49977743  0.74993766  1
