# generated using pymatgen
data_HfZrC2
_symmetry_space_group_name_H-M   'P 1'
_cell_length_a   9.35657897
_cell_length_b   9.35689932
_cell_length_c   9.35644966
_cell_angle_alpha   90.00033827
_cell_angle_beta   89.99979816
_cell_angle_gamma   89.99990888
_symmetry_Int_Tables_number   1
_chemical_formula_structural   HfZrC2
_chemical_formula_sum   'Hf16 Zr16 C32'
_cell_volume   819.14376370
_cell_formula_units_Z   16
loop_
 _symmetry_equiv_pos_site_id
 _symmetry_equiv_pos_as_xyz
  1  'x, y, z'
loop_
 _atom_site_type_symbol
 _atom_site_label
 _atom_site_symmetry_multiplicity
 _atom_site_fract_x
 _atom_site_fract_y
 _atom_site_fract_z
 _atom_site_occupancy
  Zr  Zr0  1  0.00024068  0.99970148  0.00007671  1
  Zr  Zr1  1  0.25005516  0.24938292  0.00007095  1
  Zr  Zr2  1  0.24990539  0.24924813  0.49994562  1
  Zr  Zr3  1  0.00006853  0.50031620  0.00056585  1
  Zr  Zr4  1  0.00006846  0.49998545  0.49944938  1
  Zr  Zr5  1  0.00007128  0.75082299  0.75024757  1
  Zr  Zr6  1  0.25023105  0.50016375  0.75025990  1
  Zr  Zr7  1  0.25022916  0.75075149  0.49960327  1
  Zr  Zr8  1  0.49975616  0.24954001  0.24993489  1
  Zr  Zr9  1  0.74993759  0.99952398  0.24990622  1
  Zr  Zr10  1  0.74994253  0.24955735  0.99990175  1
  Zr  Zr11  1  0.75010025  0.24941300  0.50010827  1
  Zr  Zr12  1  0.49992913  0.50065534  0.00025286  1
  Zr  Zr13  1  0.49993275  0.50032304  0.49976376  1
  Zr  Zr14  1  0.74976338  0.50016112  0.75025354  1
  Zr  Zr15  1  0.74976918  0.75059434  0.49976544  1
  Hf  Hf16  1  0.00025162  0.24970848  0.25011451  1
  Hf  Hf17  1  0.25006576  0.99949802  0.24991526  1
  Hf  Hf18  1  0.00024148  0.00003237  0.49992726  1
  Hf  Hf19  1  0.00007460  0.24918236  0.74989154  1
  Hf  Hf20  1  0.25041921  0.99985654  0.75009266  1
  Hf  Hf21  1  0.00025521  0.75029907  0.24975473  1
  Hf  Hf22  1  0.24989209  0.50051492  0.24976021  1
  Hf  Hf23  1  0.25042479  0.75061847  0.00040627  1
  Hf  Hf24  1  0.49976758  0.99939284  0.99974638  1
  Hf  Hf25  1  0.49976646  0.99970716  0.50025670  1
  Hf  Hf26  1  0.49992201  0.24898745  0.75007531  1
  Hf  Hf27  1  0.74956968  0.99985433  0.75008552  1
  Hf  Hf28  1  0.49974709  0.75045012  0.24956976  1
  Hf  Hf29  1  0.75011572  0.50050038  0.24975650  1
  Hf  Hf30  1  0.74956362  0.75044719  0.00022830  1
  Hf  Hf31  1  0.49992433  0.75101040  0.75043911  1
  C  C32  1  0.24857990  0.24980366  0.24989754  1
  C  C33  1  0.25134905  0.99852193  0.00007525  1
  C  C34  1  0.00006651  0.24962182  0.00005096  1
  C  C35  1  0.00139843  0.99989069  0.25124383  1
  C  C36  1  0.25005184  0.24817622  0.75010793  1
  C  C37  1  0.25017009  0.99981349  0.49996240  1
  C  C38  1  0.00005983  0.24839966  0.49994611  1
  C  C39  1  0.00013953  0.00116691  0.74874035  1
  C  C40  1  0.25005676  0.75022570  0.24843439  1
  C  C41  1  0.25010304  0.50159196  0.00150687  1
  C  C42  1  0.00005349  0.75032645  0.00142520  1
  C  C43  1  0.00017293  0.50017491  0.24999181  1
  C  C44  1  0.25144437  0.75168495  0.75151432  1
  C  C45  1  0.25004607  0.50020130  0.49847384  1
  C  C46  1  0.00006906  0.75160964  0.49856300  1
  C  C47  1  0.00004987  0.49866561  0.74999242  1
  C  C48  1  0.75145577  0.25118475  0.24988928  1
  C  C49  1  0.74861537  0.99848851  0.99875184  1
  C  C50  1  0.49993592  0.24834882  0.99869143  1
  C  C51  1  0.49860291  0.99856169  0.24998768  1
  C  C52  1  0.74994742  0.24822502  0.75010915  1
  C  C53  1  0.74985699  0.99984389  0.50125388  1
  C  C54  1  0.49993645  0.24827643  0.50131776  1
  C  C55  1  0.49983628  0.99984318  0.74999779  1
  C  C56  1  0.74993637  0.74893552  0.24843253  1
  C  C57  1  0.74989056  0.50157724  0.00141153  1
  C  C58  1  0.49993005  0.75154849  0.00008325  1
  C  C59  1  0.49985378  0.50152251  0.24992308  1
  C  C60  1  0.74854611  0.75157986  0.75149528  1
  C  C61  1  0.74995459  0.50020718  0.49853694  1
  C  C62  1  0.49994318  0.75167211  0.49997110  1
  C  C63  1  0.49994557  0.50010917  0.75009528  1
