# generated using pymatgen
data_ZrTaTiNbAuC5
_symmetry_space_group_name_H-M   'P 1'
_cell_length_a   7.07078702
_cell_length_b   7.41522628
_cell_length_c   4.50966479
_cell_angle_alpha   90.00000000
_cell_angle_beta   90.00000000
_cell_angle_gamma   87.51755248
_symmetry_Int_Tables_number   1
_chemical_formula_structural   ZrTaTiNbAuC5
_chemical_formula_sum   'Zr2 Ta2 Ti2 Nb2 Au2 C10'
_cell_volume   236.22652717
_cell_formula_units_Z   2
loop_
 _symmetry_equiv_pos_site_id
 _symmetry_equiv_pos_as_xyz
  1  'x, y, z'
loop_
 _atom_site_type_symbol
 _atom_site_label
 _atom_site_symmetry_multiplicity
 _atom_site_fract_x
 _atom_site_fract_y
 _atom_site_fract_z
 _atom_site_occupancy
  C  C0  1  0.30106419  0.89230972  0.00000000  1
  C  C1  1  0.50647982  0.49854940  0.00000000  1
  C  C2  1  0.39497121  0.20841681  0.50000000  1
  C  C3  1  0.09797171  0.33420033  0.00000000  1
  C  C4  1  0.99856909  0.04329738  0.50000000  1
  C  C5  1  0.70135426  0.09037836  0.00000000  1
  C  C6  1  0.60474365  0.79925873  0.50000000  1
  C  C7  1  0.20200315  0.60663818  0.50000000  1
  C  C8  1  0.89022452  0.66734574  0.00000000  1
  C  C9  1  0.79193236  0.37439787  0.50000000  1
  Zr  Zr10  1  0.28612858  0.91124871  0.50000000  1
  Zr  Zr11  1  0.39897331  0.20486824  0.00000000  1
  Ta  Ta12  1  0.19441646  0.61600316  0.00000000  1
  Ta  Ta13  1  0.09409106  0.32879177  0.50000000  1
  Ti  Ti14  1  0.70839101  0.08199380  0.50000000  1
  Ti  Ti15  1  0.79663995  0.36870793  0.00000000  1
  Nb  Nb16  1  0.51607435  0.48782978  0.50000000  1
  Nb  Nb17  1  0.61776289  0.77861438  0.00000000  1
  Au  Au18  1  0.89803463  0.70109379  0.50000000  1
  Au  Au19  1  0.00017380  0.00605594  0.00000000  1
