# generated using pymatgen
data_Hf3TiC4
_symmetry_space_group_name_H-M   'P 1'
_cell_length_a   9.15899649
_cell_length_b   9.16288197
_cell_length_c   9.15673750
_cell_angle_alpha   90.00137270
_cell_angle_beta   89.99586873
_cell_angle_gamma   89.99199600
_symmetry_Int_Tables_number   1
_chemical_formula_structural   Hf3TiC4
_chemical_formula_sum   'Hf24 Ti8 C32'
_cell_volume   768.45907461
_cell_formula_units_Z   8
loop_
 _symmetry_equiv_pos_site_id
 _symmetry_equiv_pos_as_xyz
  1  'x, y, z'
loop_
 _atom_site_type_symbol
 _atom_site_label
 _atom_site_symmetry_multiplicity
 _atom_site_fract_x
 _atom_site_fract_y
 _atom_site_fract_z
 _atom_site_occupancy
  Ti  Ti0  1  0.00007484  0.00199429  0.00207625  1
  Ti  Ti1  1  0.25283786  0.24864608  0.00238590  1
  Ti  Ti2  1  0.25196476  0.24978356  0.49776195  1
  Ti  Ti3  1  0.49982349  0.00321966  0.00308706  1
  Ti  Ti4  1  0.49993232  0.24972593  0.24672990  1
  Ti  Ti5  1  0.74793337  0.00215027  0.24673166  1
  Ti  Ti6  1  0.50000392  0.49664247  0.00318288  1
  Ti  Ti7  1  0.74714510  0.49762131  0.24772766  1
  Hf  Hf8  1  0.99996325  0.24881997  0.24834044  1
  Hf  Hf9  1  0.25178414  0.00349477  0.24734637  1
  Hf  Hf10  1  0.00003588  0.00173069  0.49821689  1
  Hf  Hf11  1  0.00176243  0.24878363  0.75172652  1
  Hf  Hf12  1  0.25050856  0.00259782  0.75267159  1
  Hf  Hf13  1  0.99997783  0.49815471  0.00165342  1
  Hf  Hf14  1  0.99824370  0.75125366  0.24833057  1
  Hf  Hf15  1  0.25278329  0.49643426  0.24816915  1
  Hf  Hf16  1  0.25147354  0.75123583  0.00062852  1
  Hf  Hf17  1  0.00001440  0.49837722  0.49831843  1
  Hf  Hf18  1  0.00000867  0.75119501  0.75165425  1
  Hf  Hf19  1  0.25141282  0.49728234  0.75162597  1
  Hf  Hf20  1  0.25053954  0.75025813  0.49931139  1
  Hf  Hf21  1  0.74710484  0.24882308  0.00361845  1
  Hf  Hf22  1  0.50004799  0.00271176  0.49714915  1
  Hf  Hf23  1  0.49802771  0.24980703  0.75303361  1
  Hf  Hf24  1  0.74948094  0.00063893  0.75299711  1
  Hf  Hf25  1  0.74829940  0.24976526  0.49653735  1
  Hf  Hf26  1  0.50193096  0.75029017  0.24742060  1
  Hf  Hf27  1  0.74860359  0.75117506  0.00264037  1
  Hf  Hf28  1  0.50006969  0.49743039  0.49704544  1
  Hf  Hf29  1  0.50004028  0.75016562  0.75249802  1
  Hf  Hf30  1  0.74850846  0.49933113  0.75178528  1
  Hf  Hf31  1  0.74962288  0.75034362  0.49738842  1
  C  C32  1  0.25485605  0.24973755  0.24832887  1
  C  C33  1  0.25139097  0.00543631  0.00097452  1
  C  C34  1  0.00325922  0.24531836  0.00113932  1
  C  C35  1  0.99657216  0.00116609  0.24466635  1
  C  C36  1  0.25068722  0.24969026  0.75170297  1
  C  C37  1  0.25061114  0.00529069  0.49896589  1
  C  C38  1  0.00354010  0.24968664  0.49881614  1
  C  C39  1  0.00018173  0.00084909  0.75483552  1
  C  C40  1  0.25090359  0.75037429  0.24900103  1
  C  C41  1  0.25479368  0.49477893  0.00088108  1
  C  C42  1  0.99984649  0.75389494  0.00080938  1
  C  C43  1  0.99657272  0.49882767  0.24909202  1
  C  C44  1  0.25052068  0.75033456  0.75097182  1
  C  C45  1  0.25082441  0.49480491  0.49891270  1
  C  C46  1  0.99988143  0.75046690  0.49909540  1
  C  C47  1  0.00012625  0.49914710  0.75088053  1
  C  C48  1  0.74510812  0.24955891  0.24900378  1
  C  C49  1  0.74871917  0.00096633  0.00581970  1
  C  C50  1  0.49545667  0.24943922  0.00573555  1
  C  C51  1  0.50428628  0.00533324  0.24427361  1
  C  C52  1  0.74913792  0.24965329  0.75127560  1
  C  C53  1  0.74943781  0.00100871  0.49526720  1
  C  C54  1  0.49558620  0.24987935  0.49511272  1
  C  C55  1  0.49981631  0.00113345  0.75495978  1
  C  C56  1  0.74932607  0.75075575  0.24899548  1
  C  C57  1  0.74515357  0.49886262  0.00561122  1
  C  C58  1  0.50011201  0.75044200  0.00100773  1
  C  C59  1  0.50446013  0.49476540  0.24445167  1
  C  C60  1  0.74952756  0.75035673  0.75121766  1
  C  C61  1  0.74923002  0.49912875  0.49504506  1
  C  C62  1  0.50023607  0.75021662  0.49879686  1
  C  C63  1  0.49987780  0.49881165  0.75456220  1
