# generated using pymatgen
data_ZrTi3C4
_symmetry_space_group_name_H-M   'P 1'
_cell_length_a   8.88459996
_cell_length_b   8.87817179
_cell_length_c   8.87776281
_cell_angle_alpha   89.96243556
_cell_angle_beta   89.96318076
_cell_angle_gamma   90.03697468
_symmetry_Int_Tables_number   1
_chemical_formula_structural   ZrTi3C4
_chemical_formula_sum   'Zr8 Ti24 C32'
_cell_volume   700.26865376
_cell_formula_units_Z   8
loop_
 _symmetry_equiv_pos_site_id
 _symmetry_equiv_pos_as_xyz
  1  'x, y, z'
loop_
 _atom_site_type_symbol
 _atom_site_label
 _atom_site_symmetry_multiplicity
 _atom_site_fract_x
 _atom_site_fract_y
 _atom_site_fract_z
 _atom_site_occupancy
  Zr  Zr0  1  0.00159995  0.00120523  0.99654326  1
  Zr  Zr1  1  0.00052854  0.74632409  0.24982817  1
  Zr  Zr2  1  0.25148652  0.74941666  0.50186255  1
  Zr  Zr3  1  0.49804804  0.99882558  0.99654217  1
  Zr  Zr4  1  0.49655627  0.25330686  0.24990863  1
  Zr  Zr5  1  0.74959914  0.99831713  0.25151399  1
  Zr  Zr6  1  0.75143263  0.25050129  0.50223368  1
  Zr  Zr7  1  0.75010243  0.50117137  0.75151827  1
  Ti  Ti8  1  0.00337734  0.25315031  0.24990879  1
  Ti  Ti9  1  0.24962015  0.00163044  0.25142748  1
  Ti  Ti10  1  0.24841573  0.25404637  0.99758383  1
  Ti  Ti11  1  0.00286637  0.00134816  0.50316006  1
  Ti  Ti12  1  0.00415985  0.25138353  0.74986364  1
  Ti  Ti13  1  0.25002980  0.00168518  0.74829606  1
  Ti  Ti14  1  0.24899953  0.25111601  0.50239798  1
  Ti  Ti15  1  0.00274496  0.49867552  0.99881863  1
  Ti  Ti16  1  0.24967749  0.49888156  0.24849055  1
  Ti  Ti17  1  0.25130527  0.74596444  0.99788225  1
  Ti  Ti18  1  0.00308563  0.49820984  0.50116615  1
  Ti  Ti19  1  0.00098082  0.74902038  0.74992411  1
  Ti  Ti20  1  0.25006616  0.49910170  0.75118136  1
  Ti  Ti21  1  0.75145192  0.25383318  0.99869035  1
  Ti  Ti22  1  0.49800879  0.99897762  0.50327118  1
  Ti  Ti23  1  0.49586544  0.25145669  0.74985508  1
  Ti  Ti24  1  0.75001914  0.99852476  0.74891171  1
  Ti  Ti25  1  0.49709510  0.50119709  0.99876337  1
  Ti  Ti26  1  0.49907991  0.74643446  0.24945771  1
  Ti  Ti27  1  0.74959612  0.50083064  0.24884243  1
  Ti  Ti28  1  0.74832959  0.74618886  0.99839509  1
  Ti  Ti29  1  0.49802979  0.50156519  0.50109721  1
  Ti  Ti30  1  0.49921381  0.74898815  0.74990036  1
  Ti  Ti31  1  0.74895230  0.74925706  0.50286283  1
  C  C32  1  0.24364566  0.25173224  0.24968654  1
  C  C33  1  0.24982143  0.00053871  0.99839925  1
  C  C34  1  0.00175085  0.25734916  0.99857591  1
  C  C35  1  0.00698755  0.00565738  0.25603018  1
  C  C36  1  0.24966841  0.25106247  0.75015414  1
  C  C37  1  0.24998779  0.00600106  0.50173082  1
  C  C38  1  0.00734242  0.25124680  0.50169231  1
  C  C39  1  0.00162597  0.00031214  0.74340580  1
  C  C40  1  0.25601090  0.74802875  0.24402422  1
  C  C41  1  0.24988830  0.49967956  0.99902533  1
  C  C42  1  0.00076042  0.74267337  0.99298252  1
  C  C43  1  0.00182248  0.49352283  0.24977111  1
  C  C44  1  0.25049072  0.74905620  0.75590368  1
  C  C45  1  0.25007690  0.49418353  0.50088534  1
  C  C46  1  0.99535744  0.74886955  0.50700265  1
  C  C47  1  0.00710608  0.49937559  0.75002166  1
  C  C48  1  0.75576312  0.25696367  0.24407079  1
  C  C49  1  0.74988135  0.99913146  0.99316990  1
  C  C50  1  0.49797443  0.25735173  0.99299773  1
  C  C51  1  0.49275971  0.99430834  0.25598306  1
  C  C52  1  0.75055288  0.24502983  0.75646155  1
  C  C53  1  0.74991378  0.99391843  0.50737208  1
  C  C54  1  0.49307908  0.25129411  0.50700547  1
  C  C55  1  0.49838689  0.99979994  0.74336662  1
  C  C56  1  0.74370935  0.74264011  0.24954275  1
  C  C57  1  0.74991710  0.50022085  0.00518476  1
  C  C58  1  0.49917663  0.74267195  0.99849454  1
  C  C59  1  0.49834590  0.50627165  0.24969036  1
  C  C60  1  0.74950099  0.75492980  0.75039340  1
  C  C61  1  0.74998194  0.50604154  0.49526076  1
  C  C62  1  0.50524275  0.74895579  0.50160065  1
  C  C63  1  0.49314624  0.50064611  0.75001517  1
