# generated using pymatgen
data_ZrTiC2
_symmetry_space_group_name_H-M   'P 1'
_cell_length_a   9.09357928
_cell_length_b   9.07103944
_cell_length_c   9.07489895
_cell_angle_alpha   90.00708250
_cell_angle_beta   90.00396876
_cell_angle_gamma   89.99585692
_symmetry_Int_Tables_number   1
_chemical_formula_structural   ZrTiC2
_chemical_formula_sum   'Zr16 Ti16 C32'
_cell_volume   748.57221841
_cell_formula_units_Z   16
loop_
 _symmetry_equiv_pos_site_id
 _symmetry_equiv_pos_as_xyz
  1  'x, y, z'
loop_
 _atom_site_type_symbol
 _atom_site_label
 _atom_site_symmetry_multiplicity
 _atom_site_fract_x
 _atom_site_fract_y
 _atom_site_fract_z
 _atom_site_occupancy
  Zr  Zr0  1  0.00180675  0.99835311  0.00052951  1
  Zr  Zr1  1  0.25036468  0.24610751  0.00012579  1
  Zr  Zr2  1  0.24911780  0.24511638  0.49991202  1
  Zr  Zr3  1  0.00038373  0.50202759  0.00408766  1
  Zr  Zr4  1  0.00028279  0.49944927  0.49618103  1
  Zr  Zr5  1  0.00037766  0.75515022  0.75122572  1
  Zr  Zr6  1  0.25140486  0.50070162  0.75150381  1
  Zr  Zr7  1  0.25146879  0.75449145  0.49710650  1
  Zr  Zr8  1  0.49821706  0.24737585  0.24973465  1
  Zr  Zr9  1  0.74947190  0.99651748  0.24937563  1
  Zr  Zr10  1  0.74962757  0.24731206  0.99909332  1
  Zr  Zr11  1  0.75069130  0.24621328  0.50114656  1
  Zr  Zr12  1  0.49961879  0.50504296  0.00171229  1
  Zr  Zr13  1  0.49964951  0.50216014  0.49854674  1
  Zr  Zr14  1  0.74857179  0.50070065  0.75156037  1
  Zr  Zr15  1  0.74843814  0.75305821  0.49851818  1
  Ti  Ti16  1  0.00185416  0.24704295  0.25098205  1
  Ti  Ti17  1  0.25088832  0.99619341  0.24917649  1
  Ti  Ti18  1  0.00176303  0.00021881  0.49951111  1
  Ti  Ti19  1  0.00052036  0.24423048  0.74873196  1
  Ti  Ti20  1  0.25377450  0.99881413  0.75056336  1
  Ti  Ti21  1  0.00235425  0.75203370  0.24817663  1
  Ti  Ti22  1  0.24934069  0.50409991  0.24811356  1
  Ti  Ti23  1  0.25375911  0.75453079  0.00240301  1
  Ti  Ti24  1  0.49860303  0.99611808  0.99803545  1
  Ti  Ti25  1  0.49858142  0.99831687  0.50192838  1
  Ti  Ti26  1  0.49943672  0.24206845  0.75053242  1
  Ti  Ti27  1  0.74597129  0.99873726  0.75077910  1
  Ti  Ti28  1  0.49761410  0.75338430  0.24664669  1
  Ti  Ti29  1  0.75064331  0.50350934  0.24815088  1
  Ti  Ti30  1  0.74649570  0.75291095  0.00134568  1
  Ti  Ti31  1  0.49957921  0.75754710  0.75342172  1
  C  C32  1  0.24415363  0.24743227  0.24972483  1
  C  C33  1  0.25647299  0.99293463  0.00050887  1
  C  C34  1  0.00046561  0.24821599  0.00070715  1
  C  C35  1  0.00618974  0.99871847  0.25504847  1
  C  C36  1  0.25082353  0.24155973  0.75026249  1
  C  C37  1  0.25106843  0.99917600  0.49994199  1
  C  C38  1  0.00037013  0.24207682  0.49940654  1
  C  C39  1  0.00093298  0.00572690  0.74487973  1
  C  C40  1  0.25085102  0.75228519  0.24339608  1
  C  C41  1  0.25057530  0.50671515  0.00694443  1
  C  C42  1  0.00090380  0.75166125  0.00677248  1
  C  C43  1  0.00108914  0.50214351  0.24970399  1
  C  C44  1  0.25668995  0.75833437  0.75598968  1
  C  C45  1  0.25020213  0.50085942  0.49338970  1
  C  C46  1  0.00052873  0.75771432  0.49368389  1
  C  C47  1  0.00023315  0.49554662  0.75031851  1
  C  C48  1  0.75522395  0.25334428  0.24978458  1
  C  C49  1  0.74386057  0.99291969  0.99468378  1
  C  C50  1  0.49952604  0.24248520  0.99424404  1
  C  C51  1  0.49356851  0.99284158  0.24948798  1
  C  C52  1  0.74898394  0.24177747  0.75031045  1
  C  C53  1  0.74884214  0.99918181  0.50544980  1
  C  C54  1  0.49944729  0.24190840  0.50560697  1
  C  C55  1  0.49922126  0.99879671  0.75074501  1
  C  C56  1  0.74884766  0.74563474  0.24337663  1
  C  C57  1  0.74955310  0.50677703  0.00665057  1
  C  C58  1  0.49932376  0.75808564  0.00058685  1
  C  C59  1  0.49884441  0.50704154  0.24931522  1
  C  C60  1  0.74338196  0.75784434  0.75616373  1
  C  C61  1  0.74976894  0.50074659  0.49371498  1
  C  C62  1  0.49955752  0.75834548  0.49963609  1
  C  C63  1  0.49982635  0.50163452  0.75070628  1
