# generated using pymatgen
data_HfTiC2
_symmetry_space_group_name_H-M   'P 1'
_cell_length_a   9.01234702
_cell_length_b   9.01748814
_cell_length_c   9.00795180
_cell_angle_alpha   90.00268129
_cell_angle_beta   89.99799572
_cell_angle_gamma   90.01600237
_symmetry_Int_Tables_number   1
_chemical_formula_structural   HfTiC2
_chemical_formula_sum   'Hf16 Ti16 C32'
_cell_volume   732.06479396
_cell_formula_units_Z   16
loop_
 _symmetry_equiv_pos_site_id
 _symmetry_equiv_pos_as_xyz
  1  'x, y, z'
loop_
 _atom_site_type_symbol
 _atom_site_label
 _atom_site_symmetry_multiplicity
 _atom_site_fract_x
 _atom_site_fract_y
 _atom_site_fract_z
 _atom_site_occupancy
  Ti  Ti0  1  0.00015104  0.99974560  0.99999109  1
  Ti  Ti1  1  0.24964844  0.99866776  0.24894478  1
  Ti  Ti2  1  0.24724420  0.25049263  0.00015400  1
  Ti  Ti3  1  0.24962803  0.25306313  0.50039286  1
  Ti  Ti4  1  0.00118011  0.50038439  0.99926151  1
  Ti  Ti5  1  0.24844569  0.74978040  0.00118599  1
  Ti  Ti6  1  0.00167338  0.50034300  0.50114964  1
  Ti  Ti7  1  0.24869255  0.50044581  0.74924911  1
  Ti  Ti8  1  0.25104291  0.74726745  0.49923776  1
  Ti  Ti9  1  0.75267437  0.24896664  0.99858943  1
  Ti  Ti10  1  0.75133423  0.99941547  0.75079154  1
  Ti  Ti11  1  0.75032783  0.25144410  0.50099292  1
  Ti  Ti12  1  0.49850064  0.74963656  0.25096573  1
  Ti  Ti13  1  0.75179615  0.75072002  0.99977930  1
  Ti  Ti14  1  0.49884626  0.50110824  0.50006193  1
  Ti  Ti15  1  0.74937779  0.74824823  0.49967510  1
  Hf  Hf16  1  0.00123785  0.25033680  0.24899670  1
  Hf  Hf17  1  0.00019587  0.99976796  0.49991955  1
  Hf  Hf18  1  0.00023772  0.25123853  0.75091016  1
  Hf  Hf19  1  0.24859293  0.99975680  0.75114180  1
  Hf  Hf20  1  0.00156763  0.74987610  0.24904144  1
  Hf  Hf21  1  0.24986569  0.50139914  0.25131447  1
  Hf  Hf22  1  0.00041183  0.74876380  0.75094722  1
  Hf  Hf23  1  0.49946341  0.99867098  0.00086813  1
  Hf  Hf24  1  0.49871639  0.25024518  0.25087509  1
  Hf  Hf25  1  0.75021445  0.99873526  0.24876509  1
  Hf  Hf26  1  0.49950517  0.99847310  0.49891066  1
  Hf  Hf27  1  0.49966297  0.25118468  0.74902593  1
  Hf  Hf28  1  0.49859702  0.50120846  0.00002686  1
  Hf  Hf29  1  0.75028594  0.50126475  0.25102909  1
  Hf  Hf30  1  0.49969534  0.74874153  0.74880309  1
  Hf  Hf31  1  0.75140032  0.50027832  0.74908607  1
  C  C32  1  0.24965764  0.24687053  0.24988713  1
  C  C33  1  0.24483588  0.99942762  0.00440938  1
  C  C34  1  0.00036232  0.25029181  0.99978137  1
  C  C35  1  0.00447691  0.99965975  0.24536029  1
  C  C36  1  0.24936181  0.25462491  0.74998050  1
  C  C37  1  0.24972538  0.99950894  0.49580192  1
  C  C38  1  0.00056757  0.25496265  0.50019070  1
  C  C39  1  0.99583315  0.99977958  0.75446948  1
  C  C40  1  0.25420283  0.75380599  0.25003028  1
  C  C41  1  0.24478430  0.50058251  0.99618227  1
  C  C42  1  0.00063516  0.74965272  0.00010100  1
  C  C43  1  0.00075919  0.50045401  0.25013356  1
  C  C44  1  0.24980849  0.74529383  0.74998714  1
  C  C45  1  0.24984089  0.50055206  0.50443008  1
  C  C46  1  0.00078448  0.74497596  0.49996155  1
  C  C47  1  0.00486413  0.50017527  0.75001423  1
  C  C48  1  0.75037115  0.25009367  0.24992811  1
  C  C49  1  0.75482968  0.99943875  0.99557424  1
  C  C50  1  0.49919284  0.25018140  0.99995187  1
  C  C51  1  0.49526373  0.99522389  0.24991082  1
  C  C52  1  0.75054224  0.24644560  0.74997662  1
  C  C53  1  0.75011883  0.99942807  0.50390552  1
  C  C54  1  0.49941203  0.25473978  0.49996616  1
  C  C55  1  0.50350084  0.99956856  0.74992924  1
  C  C56  1  0.74651416  0.74994145  0.25006215  1
  C  C57  1  0.75483925  0.50067187  0.99976650  1
  C  C58  1  0.49931824  0.74978029  0.00426079  1
  C  C59  1  0.49947946  0.50472732  0.25460188  1
  C  C60  1  0.75038079  0.75366913  0.74996097  1
  C  C61  1  0.75033332  0.50060910  0.50040027  1
  C  C62  1  0.49939253  0.74486678  0.49549196  1
  C  C63  1  0.49579665  0.50032542  0.74550800  1
