# generated using pymatgen
data_HfZrN2
_symmetry_space_group_name_H-M   'P 1'
_cell_length_a   9.13251630
_cell_length_b   9.13313279
_cell_length_c   9.13208130
_cell_angle_alpha   89.97191146
_cell_angle_beta   90.01190445
_cell_angle_gamma   90.02049513
_symmetry_Int_Tables_number   1
_chemical_formula_structural   HfZrN2
_chemical_formula_sum   'Hf16 Zr16 N32'
_cell_volume   761.69290171
_cell_formula_units_Z   16
loop_
 _symmetry_equiv_pos_site_id
 _symmetry_equiv_pos_as_xyz
  1  'x, y, z'
loop_
 _atom_site_type_symbol
 _atom_site_label
 _atom_site_symmetry_multiplicity
 _atom_site_fract_x
 _atom_site_fract_y
 _atom_site_fract_z
 _atom_site_occupancy
  Hf  Hf0  1  0.99950463  0.00086455  0.00038990  1
  Hf  Hf1  1  0.24998682  0.25045253  0.00030756  1
  Hf  Hf2  1  0.99999690  0.25043185  0.74973122  1
  Hf  Hf3  1  0.99999660  0.74996380  0.25105941  1
  Hf  Hf4  1  0.25066557  0.74940060  0.99999165  1
  Hf  Hf5  1  0.99947135  0.74948714  0.74901293  1
  Hf  Hf6  1  0.24929105  0.74996682  0.49994065  1
  Hf  Hf7  1  0.49963803  0.24956140  0.24887533  1
  Hf  Hf8  1  0.49987867  0.00004216  0.49996651  1
  Hf  Hf9  1  0.49994047  0.25005161  0.75103110  1
  Hf  Hf10  1  0.75110048  0.24976775  0.50003945  1
  Hf  Hf11  1  0.50001440  0.75055568  0.24944898  1
  Hf  Hf12  1  0.75092958  0.49972536  0.24965385  1
  Hf  Hf13  1  0.74929422  0.75000244  0.99967382  1
  Hf  Hf14  1  0.49960458  0.50023080  0.50046579  1
  Hf  Hf15  1  0.50061173  0.75001590  0.75053833  1
  Zr  Zr16  1  0.00042630  0.25000603  0.25032845  1
  Zr  Zr17  1  0.24957154  0.00079470  0.25040929  1
  Zr  Zr18  1  0.99985539  0.00026940  0.49940858  1
  Zr  Zr19  1  0.25000618  0.00041137  0.74943576  1
  Zr  Zr20  1  0.24861664  0.25005660  0.49951166  1
  Zr  Zr21  1  0.00010505  0.49888628  0.00002910  1
  Zr  Zr22  1  0.24897240  0.49915160  0.25002998  1
  Zr  Zr23  1  0.00072742  0.49970670  0.50004657  1
  Zr  Zr24  1  0.24972244  0.49956514  0.74993074  1
  Zr  Zr25  1  0.50051847  0.00023495  0.00003877  1
  Zr  Zr26  1  0.75029599  0.00055585  0.24996889  1
  Zr  Zr27  1  0.74991111  0.25002064  0.00002453  1
  Zr  Zr28  1  0.74982467  0.99986553  0.74997237  1
  Zr  Zr29  1  0.50008152  0.49963646  0.99942639  1
  Zr  Zr30  1  0.75045724  0.50015904  0.75069728  1
  Zr  Zr31  1  0.75095931  0.75052682  0.50061538  1
  N  N32  1  0.25386190  0.24989281  0.24591770  1
  N  N33  1  0.24620648  0.99979998  0.00008427  1
  N  N34  1  0.00394849  0.24613210  0.99613156  1
  N  N35  1  0.99990047  0.99618297  0.24629941  1
  N  N36  1  0.24993684  0.25005290  0.75373381  1
  N  N37  1  0.25364566  0.99619902  0.49975429  1
  N  N38  1  0.99602268  0.24986702  0.50400055  1
  N  N39  1  0.99973219  0.99988942  0.75342464  1
  N  N40  1  0.24984204  0.74988247  0.24981331  1
  N  N41  1  0.25001537  0.49969491  0.00004542  1
  N  N42  1  0.00022345  0.75348985  0.99980869  1
  N  N43  1  0.99608726  0.50380136  0.25025193  1
  N  N44  1  0.24989202  0.74988393  0.75013484  1
  N  N45  1  0.25387495  0.50386877  0.49985366  1
  N  N46  1  0.00418470  0.75000015  0.50016442  1
  N  N47  1  0.00003923  0.49976929  0.74994176  1
  N  N48  1  0.74629898  0.25395913  0.25371273  1
  N  N49  1  0.75380697  0.99602121  0.00002452  1
  N  N50  1  0.49605221  0.24984090  0.99983664  1
  N  N51  1  0.50001827  0.00020166  0.25389905  1
  N  N52  1  0.75001914  0.24998399  0.74631681  1
  N  N53  1  0.74605813  0.00415257  0.49992201  1
  N  N54  1  0.50314857  0.25008833  0.50014494  1
  N  N55  1  0.50009342  0.00011846  0.74602511  1
  N  N56  1  0.75006336  0.74652144  0.24627723  1
  N  N57  1  0.75008747  0.50394331  0.00406739  1
  N  N58  1  0.49994262  0.74992388  0.99984420  1
  N  N59  1  0.50364546  0.49993521  0.25367867  1
  N  N60  1  0.75014843  0.74997919  0.75417770  1
  N  N61  1  0.74659083  0.49630283  0.49641486  1
  N  N62  1  0.49638651  0.75040233  0.50015604  1
  N  N63  1  0.50024916  0.49985111  0.74614171  1
