# generated using pymatgen
data_HfZr3N4
_symmetry_space_group_name_H-M   'P 1'
_cell_length_a   9.16226946
_cell_length_b   9.16338976
_cell_length_c   9.16365028
_cell_angle_alpha   89.98864316
_cell_angle_beta   89.99927121
_cell_angle_gamma   89.99242737
_symmetry_Int_Tables_number   1
_chemical_formula_structural   HfZr3N4
_chemical_formula_sum   'Hf8 Zr24 N32'
_cell_volume   769.35665307
_cell_formula_units_Z   8
loop_
 _symmetry_equiv_pos_site_id
 _symmetry_equiv_pos_as_xyz
  1  'x, y, z'
loop_
 _atom_site_type_symbol
 _atom_site_label
 _atom_site_symmetry_multiplicity
 _atom_site_fract_x
 _atom_site_fract_y
 _atom_site_fract_z
 _atom_site_occupancy
  Zr  Zr0  1  0.00005733  0.99961687  0.99942031  1
  Zr  Zr1  1  0.99953864  0.25042638  0.24989078  1
  Zr  Zr2  1  0.25017658  0.24987442  0.99904830  1
  Zr  Zr3  1  0.00094123  0.24991907  0.74992693  1
  Zr  Zr4  1  0.24961620  0.00031725  0.75104766  1
  Zr  Zr5  1  0.25020661  0.25081807  0.50087761  1
  Zr  Zr6  1  0.00054111  0.50047592  0.00006975  1
  Zr  Zr7  1  0.99866118  0.74963843  0.24957758  1
  Zr  Zr8  1  0.24906365  0.75011741  0.99916720  1
  Zr  Zr9  1  0.99991078  0.50008511  0.50011531  1
  Zr  Zr10  1  0.00059234  0.74992750  0.75047341  1
  Zr  Zr11  1  0.24952345  0.49946914  0.74991275  1
  Zr  Zr12  1  0.24902879  0.74897157  0.50103886  1
  Zr  Zr13  1  0.49997392  0.00054001  0.99941907  1
  Zr  Zr14  1  0.50052306  0.25059207  0.25005246  1
  Zr  Zr15  1  0.75041060  0.99994622  0.24950108  1
  Zr  Zr16  1  0.49911628  0.24985917  0.74986081  1
  Zr  Zr17  1  0.75026957  0.00000692  0.75041415  1
  Zr  Zr18  1  0.74979553  0.25056229  0.49938037  1
  Zr  Zr19  1  0.49951965  0.49955361  0.00014334  1
  Zr  Zr20  1  0.75046670  0.50010504  0.25068615  1
  Zr  Zr21  1  0.75091154  0.75072478  0.00054886  1
  Zr  Zr22  1  0.50006650  0.49868068  0.50007335  1
  Zr  Zr23  1  0.75089242  0.74951674  0.49945205  1
  Hf  Hf24  1  0.24965579  0.00046828  0.24911653  1
  Hf  Hf25  1  0.99930450  0.00001897  0.50034699  1
  Hf  Hf26  1  0.24968588  0.49958076  0.25011681  1
  Hf  Hf27  1  0.75000401  0.24957825  0.00037089  1
  Hf  Hf28  1  0.50065942  0.00089289  0.50034521  1
  Hf  Hf29  1  0.50092513  0.74967882  0.24948879  1
  Hf  Hf30  1  0.49957298  0.74993164  0.75062156  1
  Hf  Hf31  1  0.75038307  0.50001673  0.74962831  1
  N  N32  1  0.25012915  0.25050492  0.24969442  1
  N  N33  1  0.24975195  0.00023959  0.00389680  1
  N  N34  1  0.99610601  0.24988630  0.99977032  1
  N  N35  1  0.00397910  0.99986109  0.25391819  1
  N  N36  1  0.25008600  0.24991486  0.75010050  1
  N  N37  1  0.24975463  0.00011364  0.49628538  1
  N  N38  1  0.99996694  0.24604255  0.50001342  1
  N  N39  1  0.00017762  0.99982721  0.74587458  1
  N  N40  1  0.25367256  0.74994331  0.24986502  1
  N  N41  1  0.24985507  0.49986309  0.00404826  1
  N  N42  1  0.99989648  0.75015987  0.99994856  1
  N  N43  1  0.00413139  0.50025020  0.25023355  1
  N  N44  1  0.25396683  0.74954808  0.75033193  1
  N  N45  1  0.24977756  0.49966284  0.49608167  1
  N  N46  1  0.99984148  0.75409393  0.50016241  1
  N  N47  1  0.99629108  0.50016830  0.74990229  1
  N  N48  1  0.75003405  0.25020697  0.24589234  1
  N  N49  1  0.75027152  0.00408278  0.00001371  1
  N  N50  1  0.50402194  0.25000866  0.99985196  1
  N  N51  1  0.49615073  0.99609368  0.25391415  1
  N  N52  1  0.74994808  0.25407294  0.75399474  1
  N  N53  1  0.75018612  0.00022214  0.49984828  1
  N  N54  1  0.50004546  0.24577666  0.50012633  1
  N  N55  1  0.49978089  0.99579235  0.74586468  1
  N  N56  1  0.74587033  0.74981587  0.24980760  1
  N  N57  1  0.75026328  0.49607729  0.99638877  1
  N  N58  1  0.50010815  0.75013309  0.99984560  1
  N  N59  1  0.49604776  0.50415906  0.25021547  1
  N  N60  1  0.74613147  0.74616256  0.75021021  1
  N  N61  1  0.75020427  0.49990382  0.50380179  1
  N  N62  1  0.50005084  0.75370579  0.50004076  1
  N  N63  1  0.50350689  0.50379552  0.74992307  1
