# generated using pymatgen
data_Hf15ZrN16
_symmetry_space_group_name_H-M   'P 1'
_cell_length_a   9.07729497
_cell_length_b   9.07729497
_cell_length_c   9.07699354
_cell_angle_alpha   90.00000000
_cell_angle_beta   90.00000000
_cell_angle_gamma   90.00000000
_symmetry_Int_Tables_number   1
_chemical_formula_structural   Hf15ZrN16
_chemical_formula_sum   'Hf30 Zr2 N32'
_cell_volume   747.91961433
_cell_formula_units_Z   2
loop_
 _symmetry_equiv_pos_site_id
 _symmetry_equiv_pos_as_xyz
  1  'x, y, z'
loop_
 _atom_site_type_symbol
 _atom_site_label
 _atom_site_symmetry_multiplicity
 _atom_site_fract_x
 _atom_site_fract_y
 _atom_site_fract_z
 _atom_site_occupancy
  Hf  Hf0  1  0.00039993  0.00000000  0.00034156  1
  Hf  Hf1  1  0.00000000  0.25000000  0.25000000  1
  Hf  Hf2  1  0.25000000  0.24960007  0.00034156  1
  Hf  Hf3  1  0.00039993  0.00000000  0.49965844  1
  Hf  Hf4  1  0.00000000  0.25000000  0.75000000  1
  Hf  Hf5  1  0.25000000  0.00000000  0.75000000  1
  Hf  Hf6  1  0.25000000  0.24960007  0.49965844  1
  Hf  Hf7  1  0.99960007  0.50000000  0.00034156  1
  Hf  Hf8  1  0.00000000  0.75000000  0.25000000  1
  Hf  Hf9  1  0.25000000  0.50000000  0.25000000  1
  Hf  Hf10  1  0.25000000  0.75039993  0.00034156  1
  Hf  Hf11  1  0.99960007  0.50000000  0.49965844  1
  Hf  Hf12  1  0.00000000  0.75000000  0.75000000  1
  Hf  Hf13  1  0.25000000  0.50000000  0.75000000  1
  Hf  Hf14  1  0.25000000  0.75039993  0.49965844  1
  Hf  Hf15  1  0.49960007  0.00000000  0.00034156  1
  Hf  Hf16  1  0.50000000  0.25000000  0.25000000  1
  Hf  Hf17  1  0.75000000  0.00000000  0.25000000  1
  Hf  Hf18  1  0.75000000  0.25039993  0.00034156  1
  Hf  Hf19  1  0.49960007  0.00000000  0.49965844  1
  Hf  Hf20  1  0.50000000  0.25000000  0.75000000  1
  Hf  Hf21  1  0.75000000  0.00000000  0.75000000  1
  Hf  Hf22  1  0.75000000  0.25039993  0.49965844  1
  Hf  Hf23  1  0.50039993  0.50000000  0.00034156  1
  Hf  Hf24  1  0.50000000  0.75000000  0.25000000  1
  Hf  Hf25  1  0.75000000  0.74960007  0.00034156  1
  Hf  Hf26  1  0.50039993  0.50000000  0.49965844  1
  Hf  Hf27  1  0.50000000  0.75000000  0.75000000  1
  Hf  Hf28  1  0.75000000  0.50000000  0.75000000  1
  Hf  Hf29  1  0.75000000  0.74960007  0.49965844  1
  Zr  Zr30  1  0.25000000  0.00000000  0.25000000  1
  Zr  Zr31  1  0.75000000  0.50000000  0.25000000  1
  N  N32  1  0.25000000  0.25355300  0.25000000  1
  N  N33  1  0.25000000  0.00000000  0.99637454  1
  N  N34  1  0.00000000  0.25000000  0.00013772  1
  N  N35  1  0.99644700  0.00000000  0.25000000  1
  N  N36  1  0.25000000  0.24999848  0.75000000  1
  N  N37  1  0.25000000  0.00000000  0.50362546  1
  N  N38  1  0.00000000  0.25000000  0.49986228  1
  N  N39  1  0.00000152  0.00000000  0.75000000  1
  N  N40  1  0.25000000  0.74644700  0.25000000  1
  N  N41  1  0.25000000  0.50000000  0.99993177  1
  N  N42  1  0.00000000  0.75000000  0.00013772  1
  N  N43  1  0.00355300  0.50000000  0.25000000  1
  N  N44  1  0.25000000  0.75000152  0.75000000  1
  N  N45  1  0.25000000  0.50000000  0.50006823  1
  N  N46  1  0.00000000  0.75000000  0.49986228  1
  N  N47  1  0.99999848  0.50000000  0.75000000  1
  N  N48  1  0.75000000  0.24644700  0.25000000  1
  N  N49  1  0.75000000  0.00000000  0.99993177  1
  N  N50  1  0.50000000  0.25000000  0.00013772  1
  N  N51  1  0.50355300  0.00000000  0.25000000  1
  N  N52  1  0.75000000  0.25000152  0.75000000  1
  N  N53  1  0.75000000  0.00000000  0.50006823  1
  N  N54  1  0.50000000  0.25000000  0.49986228  1
  N  N55  1  0.49999848  0.00000000  0.75000000  1
  N  N56  1  0.75000000  0.75355300  0.25000000  1
  N  N57  1  0.75000000  0.50000000  0.99637454  1
  N  N58  1  0.50000000  0.75000000  0.00013772  1
  N  N59  1  0.49644700  0.50000000  0.25000000  1
  N  N60  1  0.75000000  0.74999848  0.75000000  1
  N  N61  1  0.75000000  0.50000000  0.50362546  1
  N  N62  1  0.50000000  0.75000000  0.49986228  1
  N  N63  1  0.50000152  0.50000000  0.75000000  1
