# generated using pymatgen
data_Zr3TiC4
_symmetry_space_group_name_H-M   'P 1'
_cell_length_a   9.25239995
_cell_length_b   9.25326829
_cell_length_c   9.25967810
_cell_angle_alpha   89.97862159
_cell_angle_beta   89.97983824
_cell_angle_gamma   89.99587523
_symmetry_Int_Tables_number   1
_chemical_formula_structural   Zr3TiC4
_chemical_formula_sum   'Zr24 Ti8 C32'
_cell_volume   792.76667012
_cell_formula_units_Z   8
loop_
 _symmetry_equiv_pos_site_id
 _symmetry_equiv_pos_as_xyz
  1  'x, y, z'
loop_
 _atom_site_type_symbol
 _atom_site_label
 _atom_site_symmetry_multiplicity
 _atom_site_fract_x
 _atom_site_fract_y
 _atom_site_fract_z
 _atom_site_occupancy
  Zr  Zr0  1  0.99901935  0.99958664  0.00124546  1
  Zr  Zr1  1  0.00043164  0.25270613  0.24743894  1
  Zr  Zr2  1  0.25110064  0.99703711  0.25086999  1
  Zr  Zr3  1  0.25021698  0.25096847  0.00132842  1
  Zr  Zr4  1  0.00157288  0.99738801  0.49855354  1
  Zr  Zr5  1  0.99919755  0.25123156  0.75237174  1
  Zr  Zr6  1  0.25357808  0.99690186  0.74928538  1
  Zr  Zr7  1  0.25141214  0.24999091  0.49871992  1
  Zr  Zr8  1  0.24996448  0.74885631  0.00173189  1
  Zr  Zr9  1  0.00271691  0.50306769  0.49675202  1
  Zr  Zr10  1  0.00146334  0.74902647  0.75022347  1
  Zr  Zr11  1  0.25054246  0.50249229  0.75012696  1
  Zr  Zr12  1  0.49985096  0.24881261  0.24865224  1
  Zr  Zr13  1  0.74837517  0.99959452  0.24868007  1
  Zr  Zr14  1  0.50079169  0.24737218  0.75146431  1
  Zr  Zr15  1  0.74649576  0.99910509  0.75134305  1
  Zr  Zr16  1  0.74867362  0.24897430  0.49965091  1
  Zr  Zr17  1  0.49983407  0.50048532  0.00033137  1
  Zr  Zr18  1  0.49724174  0.75088335  0.25111684  1
  Zr  Zr19  1  0.75226768  0.50082252  0.24746780  1
  Zr  Zr20  1  0.74958611  0.75001038  0.00035777  1
  Zr  Zr21  1  0.49764344  0.50317726  0.49978177  1
  Zr  Zr22  1  0.74999328  0.50036362  0.75226105  1
  Zr  Zr23  1  0.74824049  0.75117589  0.49985681  1
  C  C24  1  0.25009659  0.25468188  0.24969745  1
  C  C25  1  0.25563573  0.99910942  0.00046970  1
  C  C26  1  0.99512891  0.25529582  0.00066882  1
  C  C27  1  0.00055484  0.99437138  0.24948867  1
  C  C28  1  0.25078677  0.25000342  0.75048104  1
  C  C29  1  0.25633071  0.99342876  0.49960577  1
  C  C30  1  0.00048664  0.25027753  0.49919794  1
  C  C31  1  0.00026335  0.99896844  0.75043197  1
  C  C32  1  0.24489984  0.74444568  0.25502833  1
  C  C33  1  0.24495897  0.50086944  0.00580756  1
  C  C34  1  0.00046047  0.74446740  0.00581027  1
  C  C35  1  0.00606029  0.50639694  0.24402922  1
  C  C36  1  0.25578215  0.74983124  0.74544052  1
  C  C37  1  0.25022914  0.50668776  0.49432375  1
  C  C38  1  0.00589235  0.74986866  0.49445521  1
  C  C39  1  0.00065207  0.50098346  0.75525263  1
  C  C40  1  0.74984763  0.25010788  0.24394842  1
  C  C41  1  0.74413437  0.00439057  0.00013659  1
  C  C42  1  0.50507783  0.24492796  0.00011187  1
  C  C43  1  0.49942334  0.99889396  0.24941080  1
  C  C44  1  0.74940048  0.24973178  0.75583014  1
  C  C45  1  0.74401264  0.99914153  0.49980700  1
  C  C46  1  0.49956832  0.24485481  0.49994436  1
  C  C47  1  0.49975056  0.99339217  0.75009779  1
  C  C48  1  0.75406590  0.74994763  0.24965413  1
  C  C49  1  0.75476467  0.49566938  0.00045095  1
  C  C50  1  0.49951712  0.75546370  0.99551605  1
  C  C51  1  0.49448932  0.50109970  0.24949716  1
  C  C52  1  0.74467090  0.75016348  0.75038656  1
  C  C53  1  0.74985046  0.50088066  0.49938074  1
  C  C54  1  0.49378047  0.75600181  0.50469634  1
  C  C55  1  0.49959083  0.50561902  0.75044841  1
  Ti  Ti56  1  0.00102830  0.50145461  0.00259612  1
  Ti  Ti57  1  0.00281398  0.74787580  0.24946250  1
  Ti  Ti58  1  0.24818612  0.50341360  0.24949445  1
  Ti  Ti59  1  0.25120980  0.74999252  0.49871853  1
  Ti  Ti60  1  0.50043042  0.99862124  0.99946451  1
  Ti  Ti61  1  0.74946712  0.25001728  0.00039651  1
  Ti  Ti62  1  0.49810824  0.99650903  0.50124730  1
  Ti  Ti63  1  0.49838193  0.75211218  0.74950222  1
