# generated using pymatgen
data_ZrTi15C16
_symmetry_space_group_name_H-M   'P 1'
_cell_length_a   8.83543926
_cell_length_b   8.83543927
_cell_length_c   8.83513058
_cell_angle_alpha   90.00000000
_cell_angle_beta   90.00000000
_cell_angle_gamma   89.99470707
_symmetry_Int_Tables_number   1
_chemical_formula_structural   ZrTi15C16
_chemical_formula_sum   'Zr2 Ti30 C32'
_cell_volume   689.71435080
_cell_formula_units_Z   2
loop_
 _symmetry_equiv_pos_site_id
 _symmetry_equiv_pos_as_xyz
  1  'x, y, z'
loop_
 _atom_site_type_symbol
 _atom_site_label
 _atom_site_symmetry_multiplicity
 _atom_site_fract_x
 _atom_site_fract_y
 _atom_site_fract_z
 _atom_site_occupancy
  Ti  Ti0  1  0.99851703  0.00000002  0.99720787  1
  Ti  Ti1  1  0.00000000  0.25000000  0.25000000  1
  Ti  Ti2  1  0.24999998  0.25148297  0.99720787  1
  Ti  Ti3  1  0.99851703  0.00000002  0.50279213  1
  Ti  Ti4  1  0.00000000  0.25000000  0.75000000  1
  Ti  Ti5  1  0.25000000  0.00000000  0.75000000  1
  Ti  Ti6  1  0.24999998  0.25148297  0.50279213  1
  Ti  Ti7  1  0.00148297  0.49999998  0.99720787  1
  Ti  Ti8  1  0.00000000  0.75000000  0.25000000  1
  Ti  Ti9  1  0.25000000  0.50000000  0.25000000  1
  Ti  Ti10  1  0.25000002  0.74851703  0.99720787  1
  Ti  Ti11  1  0.00148297  0.49999998  0.50279213  1
  Ti  Ti12  1  0.00000000  0.75000000  0.75000000  1
  Ti  Ti13  1  0.25000000  0.50000000  0.75000000  1
  Ti  Ti14  1  0.25000002  0.74851703  0.50279213  1
  Ti  Ti15  1  0.50148297  0.99999998  0.99720787  1
  Ti  Ti16  1  0.50000000  0.25000000  0.25000000  1
  Ti  Ti17  1  0.75000000  0.00000000  0.25000000  1
  Ti  Ti18  1  0.75000002  0.24851703  0.99720787  1
  Ti  Ti19  1  0.50148297  0.99999998  0.50279213  1
  Ti  Ti20  1  0.50000000  0.25000000  0.75000000  1
  Ti  Ti21  1  0.75000000  0.00000000  0.75000000  1
  Ti  Ti22  1  0.75000002  0.24851703  0.50279213  1
  Ti  Ti23  1  0.49851703  0.50000002  0.99720787  1
  Ti  Ti24  1  0.50000000  0.75000000  0.25000000  1
  Ti  Ti25  1  0.74999998  0.75148297  0.99720787  1
  Ti  Ti26  1  0.49851703  0.50000002  0.50279213  1
  Ti  Ti27  1  0.50000000  0.75000000  0.75000000  1
  Ti  Ti28  1  0.75000000  0.50000000  0.75000000  1
  Ti  Ti29  1  0.74999998  0.75148297  0.50279213  1
  Zr  Zr30  1  0.25000000  0.00000000  0.25000000  1
  Zr  Zr31  1  0.75000000  0.50000000  0.25000000  1
  C  C32  1  0.24999854  0.25612334  0.25000000  1
  C  C33  1  0.25000000  0.00000000  0.99272197  1
  C  C34  1  0.00000000  0.25000000  0.99848630  1
  C  C35  1  0.99387666  0.00000146  0.25000000  1
  C  C36  1  0.24999505  0.25053851  0.75000000  1
  C  C37  1  0.25000000  0.00000000  0.50727803  1
  C  C38  1  0.00000000  0.25000000  0.50151370  1
  C  C39  1  0.99946149  0.00000495  0.75000000  1
  C  C40  1  0.25000146  0.74387666  0.25000000  1
  C  C41  1  0.25000000  0.50000000  0.99822270  1
  C  C42  1  0.00000000  0.75000000  0.99849558  1
  C  C43  1  0.00612334  0.49999854  0.25000000  1
  C  C44  1  0.25000495  0.74946149  0.75000000  1
  C  C45  1  0.25000000  0.50000000  0.50177730  1
  C  C46  1  0.00000000  0.75000000  0.50150442  1
  C  C47  1  0.00053851  0.49999505  0.75000000  1
  C  C48  1  0.75000146  0.24387666  0.25000000  1
  C  C49  1  0.75000000  0.00000000  0.99822270  1
  C  C50  1  0.50000000  0.25000000  0.99849558  1
  C  C51  1  0.50612334  0.99999854  0.25000000  1
  C  C52  1  0.75000495  0.24946149  0.75000000  1
  C  C53  1  0.75000000  0.00000000  0.50177730  1
  C  C54  1  0.50000000  0.25000000  0.50150442  1
  C  C55  1  0.50053851  0.99999505  0.75000000  1
  C  C56  1  0.74999854  0.75612334  0.25000000  1
  C  C57  1  0.75000000  0.50000000  0.99272197  1
  C  C58  1  0.50000000  0.75000000  0.99848630  1
  C  C59  1  0.49387666  0.50000146  0.25000000  1
  C  C60  1  0.74999505  0.75053851  0.75000000  1
  C  C61  1  0.75000000  0.50000000  0.50727803  1
  C  C62  1  0.50000000  0.75000000  0.50151370  1
  C  C63  1  0.49946149  0.50000495  0.75000000  1
