# generated using pymatgen
data_ZrTi15C16
_symmetry_space_group_name_H-M   'P 1'
_cell_length_a   8.72140492
_cell_length_b   8.72140491
_cell_length_c   8.72304489
_cell_angle_alpha   90.00000000
_cell_angle_beta   90.00000000
_cell_angle_gamma   89.96488177
_symmetry_Int_Tables_number   1
_chemical_formula_structural   ZrTi15C16
_chemical_formula_sum   'Zr2 Ti30 C32'
_cell_volume   663.49999860
_cell_formula_units_Z   2
loop_
 _symmetry_equiv_pos_site_id
 _symmetry_equiv_pos_as_xyz
  1  'x, y, z'
loop_
 _atom_site_type_symbol
 _atom_site_label
 _atom_site_symmetry_multiplicity
 _atom_site_fract_x
 _atom_site_fract_y
 _atom_site_fract_z
 _atom_site_occupancy
  Ti  Ti0  1  0.99857262  -0.00002238  0.99754791  1
  Ti  Ti1  1  0.00000002  0.24999994  0.25000000  1
  Ti  Ti2  1  0.25002225  0.25142744  0.99754772  1
  Ti  Ti3  1  0.99857262  -0.00002238  0.50245209  1
  Ti  Ti4  1  -0.00000001  0.25000004  0.75000000  1
  Ti  Ti5  1  0.24999937  -0.00000012  0.75000000  1
  Ti  Ti6  1  0.25002225  0.25142744  0.50245228  1
  Ti  Ti7  1  0.00142736  0.50002240  0.99754781  1
  Ti  Ti8  1  -0.00000000  0.75000011  0.25000000  1
  Ti  Ti9  1  0.24999992  0.50000018  0.25000000  1
  Ti  Ti10  1  0.24997758  0.74857258  0.99754785  1
  Ti  Ti11  1  0.00142736  0.50002240  0.50245219  1
  Ti  Ti12  1  0.00000002  0.74999999  0.75000000  1
  Ti  Ti13  1  0.24999971  0.50000010  0.75000000  1
  Ti  Ti14  1  0.24997758  0.74857258  0.50245215  1
  Ti  Ti15  1  0.50142741  0.00002235  0.99754786  1
  Ti  Ti16  1  0.50000000  0.24999999  0.25000000  1
  Ti  Ti17  1  0.75000070  -0.00000033  0.25000000  1
  Ti  Ti18  1  0.74997767  0.24857253  0.99754786  1
  Ti  Ti19  1  0.50142741  0.00002235  0.50245214  1
  Ti  Ti20  1  0.49999994  0.24999998  0.75000000  1
  Ti  Ti21  1  0.75000017  0.00000016  0.75000000  1
  Ti  Ti22  1  0.74997767  0.24857253  0.50245214  1
  Ti  Ti23  1  0.49857258  0.49997763  0.99754785  1
  Ti  Ti24  1  0.49999999  0.75000000  0.25000000  1
  Ti  Ti25  1  0.75002241  0.75142744  0.99754790  1
  Ti  Ti26  1  0.49857258  0.49997763  0.50245215  1
  Ti  Ti27  1  0.49999998  0.75000000  0.75000000  1
  Ti  Ti28  1  0.75000074  0.49999984  0.75000000  1
  Ti  Ti29  1  0.75002241  0.75142744  0.50245210  1
  Zr  Zr30  1  0.24999990  0.00000004  0.25000000  1
  Zr  Zr31  1  0.74999995  0.50000000  0.25000000  1
  C  C32  1  0.24998394  0.25628773  0.25000000  1
  C  C33  1  0.24999998  -0.00000001  0.99279582  1
  C  C34  1  0.00000000  0.25000001  0.99872810  1
  C  C35  1  0.99371217  0.00001606  0.25000000  1
  C  C36  1  0.24998926  0.25040430  0.75000000  1
  C  C37  1  0.24999998  -0.00000001  0.50720418  1
  C  C38  1  0.00000000  0.25000001  0.50127190  1
  C  C39  1  0.99959606  0.00001075  0.75000000  1
  C  C40  1  0.25001612  0.74371229  0.25000000  1
  C  C41  1  0.25000002  0.50000001  0.99843451  1
  C  C42  1  0.00000002  0.75000001  0.99873735  1
  C  C43  1  0.00628771  0.49998395  0.25000000  1
  C  C44  1  0.25001065  0.74959572  0.75000000  1
  C  C45  1  0.25000002  0.50000001  0.50156549  1
  C  C46  1  0.00000002  0.75000001  0.50126265  1
  C  C47  1  0.00040431  0.49998926  0.75000000  1
  C  C48  1  0.75001604  0.24371219  0.25000000  1
  C  C49  1  0.75000001  0.00000000  0.99843489  1
  C  C50  1  0.49999999  0.25000003  0.99873732  1
  C  C51  1  0.50628780  0.99998387  0.25000000  1
  C  C52  1  0.75001071  0.24959603  0.75000000  1
  C  C53  1  0.75000001  0.00000000  0.50156511  1
  C  C54  1  0.49999999  0.25000003  0.50126268  1
  C  C55  1  0.50040394  0.99998935  0.75000000  1
  C  C56  1  0.74998388  0.75628780  0.25000000  1
  C  C57  1  0.74999997  0.49999999  0.99279583  1
  C  C58  1  0.49999997  0.74999997  0.99872823  1
  C  C59  1  0.49371229  0.50001615  0.25000000  1
  C  C60  1  0.74998934  0.75040399  0.75000000  1
  C  C61  1  0.74999997  0.49999999  0.50720417  1
  C  C62  1  0.49999997  0.74999997  0.50127177  1
  C  C63  1  0.49959568  0.50001064  0.75000000  1
