# generated using pymatgen
data_ZrTi15C16
_symmetry_space_group_name_H-M   'P 1'
_cell_length_a   8.94783666
_cell_length_b   8.94783666
_cell_length_c   8.95049209
_cell_angle_alpha   90.00000000
_cell_angle_beta   90.00000000
_cell_angle_gamma   89.99826829
_symmetry_Int_Tables_number   1
_chemical_formula_structural   ZrTi15C16
_chemical_formula_sum   'Zr2 Ti30 C32'
_cell_volume   716.61023759
_cell_formula_units_Z   2
loop_
 _symmetry_equiv_pos_site_id
 _symmetry_equiv_pos_as_xyz
  1  'x, y, z'
loop_
 _atom_site_type_symbol
 _atom_site_label
 _atom_site_symmetry_multiplicity
 _atom_site_fract_x
 _atom_site_fract_y
 _atom_site_fract_z
 _atom_site_occupancy
  Ti  Ti0  1  0.99852316  0.00000092  0.99721678  1
  Ti  Ti1  1  -0.00000012  0.25000001  0.25000000  1
  Ti  Ti2  1  0.24999915  0.25147677  0.99721688  1
  Ti  Ti3  1  0.99852316  0.00000092  0.50278322  1
  Ti  Ti4  1  0.00000013  0.24999998  0.75000000  1
  Ti  Ti5  1  0.25000006  0.00000005  0.75000000  1
  Ti  Ti6  1  0.24999915  0.25147677  0.50278312  1
  Ti  Ti7  1  0.00147672  0.49999908  0.99721689  1
  Ti  Ti8  1  -0.00000003  0.74999994  0.25000000  1
  Ti  Ti9  1  0.24999992  0.49999995  0.25000000  1
  Ti  Ti10  1  0.25000094  0.74852324  0.99721689  1
  Ti  Ti11  1  0.00147672  0.49999908  0.50278311  1
  Ti  Ti12  1  -0.00000002  0.75000003  0.75000000  1
  Ti  Ti13  1  0.25000008  0.50000005  0.75000000  1
  Ti  Ti14  1  0.25000094  0.74852324  0.50278311  1
  Ti  Ti15  1  0.50147686  -0.00000094  0.99721679  1
  Ti  Ti16  1  0.50000003  0.24999996  0.25000000  1
  Ti  Ti17  1  0.74999989  0.00000005  0.25000000  1
  Ti  Ti18  1  0.75000088  0.24852322  0.99721693  1
  Ti  Ti19  1  0.50147686  -0.00000094  0.50278321  1
  Ti  Ti20  1  0.49999987  0.24999990  0.75000000  1
  Ti  Ti21  1  0.74999997  -0.00000002  0.75000000  1
  Ti  Ti22  1  0.75000088  0.24852322  0.50278307  1
  Ti  Ti23  1  0.49852329  0.50000091  0.99721681  1
  Ti  Ti24  1  0.50000013  0.74999999  0.25000000  1
  Ti  Ti25  1  0.74999905  0.75147677  0.99721686  1
  Ti  Ti26  1  0.49852329  0.50000091  0.50278319  1
  Ti  Ti27  1  0.49999998  0.75000007  0.75000000  1
  Ti  Ti28  1  0.74999997  0.50000006  0.75000000  1
  Ti  Ti29  1  0.74999905  0.75147677  0.50278314  1
  Zr  Zr30  1  0.25000000  0.00000005  0.25000000  1
  Zr  Zr31  1  0.75000013  0.49999999  0.25000000  1
  C  C32  1  0.24999895  0.25593618  0.25000000  1
  C  C33  1  0.25000000  0.00000003  0.99292604  1
  C  C34  1  0.00000003  0.25000000  0.99843771  1
  C  C35  1  0.99406382  0.00000101  0.25000000  1
  C  C36  1  0.24999990  0.25048247  0.75000000  1
  C  C37  1  0.25000000  0.00000003  0.50707396  1
  C  C38  1  0.00000003  0.25000000  0.50156229  1
  C  C39  1  0.99951762  0.00000004  0.75000000  1
  C  C40  1  0.25000104  0.74406383  0.25000000  1
  C  C41  1  0.25000001  0.49999997  0.99814062  1
  C  C42  1  -0.00000000  0.75000000  0.99843752  1
  C  C43  1  0.00593617  0.49999898  0.25000000  1
  C  C44  1  0.25000012  0.74951754  0.75000000  1
  C  C45  1  0.25000001  0.49999997  0.50185938  1
  C  C46  1  -0.00000000  0.75000000  0.50156248  1
  C  C47  1  0.00048250  0.49999996  0.75000000  1
  C  C48  1  0.75000105  0.24406381  0.25000000  1
  C  C49  1  0.74999999  -0.00000001  0.99814071  1
  C  C50  1  0.49999997  0.25000000  0.99843755  1
  C  C51  1  0.50593617  0.99999891  0.25000000  1
  C  C52  1  0.75000009  0.24951759  0.75000000  1
  C  C53  1  0.74999999  -0.00000001  0.50185929  1
  C  C54  1  0.49999997  0.25000000  0.50156245  1
  C  C55  1  0.50048238  0.99999982  0.75000000  1
  C  C56  1  0.74999894  0.75593616  0.25000000  1
  C  C57  1  0.74999998  0.50000001  0.99292607  1
  C  C58  1  0.50000000  0.75000000  0.99843765  1
  C  C59  1  0.49406382  0.50000109  0.25000000  1
  C  C60  1  0.74999987  0.75048241  0.75000000  1
  C  C61  1  0.74999998  0.50000001  0.50707393  1
  C  C62  1  0.50000000  0.75000000  0.50156235  1
  C  C63  1  0.49951751  0.50000018  0.75000000  1
