# generated using pymatgen
data_ZrTi15C16
_symmetry_space_group_name_H-M   'P 1'
_cell_length_a   8.66112179
_cell_length_b   8.66112179
_cell_length_c   8.66045067
_cell_angle_alpha   90.00000000
_cell_angle_beta   90.00000000
_cell_angle_gamma   89.95905000
_symmetry_Int_Tables_number   1
_chemical_formula_structural   ZrTi15C16
_chemical_formula_sum   'Zr2 Ti30 C32'
_cell_volume   649.66380678
_cell_formula_units_Z   2
loop_
 _symmetry_equiv_pos_site_id
 _symmetry_equiv_pos_as_xyz
  1  'x, y, z'
loop_
 _atom_site_type_symbol
 _atom_site_label
 _atom_site_symmetry_multiplicity
 _atom_site_fract_x
 _atom_site_fract_y
 _atom_site_fract_z
 _atom_site_occupancy
  Ti  Ti0  1  0.99861883  0.00004982  0.99770110  1
  Ti  Ti1  1  0.00000000  0.25000000  0.25000000  1
  Ti  Ti2  1  0.24995018  0.25138117  0.99770110  1
  Ti  Ti3  1  0.99861883  0.00004982  0.50229890  1
  Ti  Ti4  1  0.00000000  0.25000000  0.75000000  1
  Ti  Ti5  1  0.25000000  0.00000000  0.75000000  1
  Ti  Ti6  1  0.24995018  0.25138117  0.50229890  1
  Ti  Ti7  1  0.00138117  0.49995018  0.99770110  1
  Ti  Ti8  1  0.00000000  0.75000000  0.25000000  1
  Ti  Ti9  1  0.25000000  0.50000000  0.25000000  1
  Ti  Ti10  1  0.25004982  0.74861883  0.99770110  1
  Ti  Ti11  1  0.00138117  0.49995018  0.50229890  1
  Ti  Ti12  1  0.00000000  0.75000000  0.75000000  1
  Ti  Ti13  1  0.25000000  0.50000000  0.75000000  1
  Ti  Ti14  1  0.25004982  0.74861883  0.50229890  1
  Ti  Ti15  1  0.50138117  0.99995018  0.99770110  1
  Ti  Ti16  1  0.50000000  0.25000000  0.25000000  1
  Ti  Ti17  1  0.75000000  0.00000000  0.25000000  1
  Ti  Ti18  1  0.75004982  0.24861883  0.99770110  1
  Ti  Ti19  1  0.50138117  0.99995018  0.50229890  1
  Ti  Ti20  1  0.50000000  0.25000000  0.75000000  1
  Ti  Ti21  1  0.75000000  0.00000000  0.75000000  1
  Ti  Ti22  1  0.75004982  0.24861883  0.50229890  1
  Ti  Ti23  1  0.49861883  0.50004982  0.99770110  1
  Ti  Ti24  1  0.50000000  0.75000000  0.25000000  1
  Ti  Ti25  1  0.74995018  0.75138117  0.99770110  1
  Ti  Ti26  1  0.49861883  0.50004982  0.50229890  1
  Ti  Ti27  1  0.50000000  0.75000000  0.75000000  1
  Ti  Ti28  1  0.75000000  0.50000000  0.75000000  1
  Ti  Ti29  1  0.74995018  0.75138117  0.50229890  1
  Zr  Zr30  1  0.25000000  0.00000000  0.25000000  1
  Zr  Zr31  1  0.75000000  0.50000000  0.25000000  1
  C  C32  1  0.24998015  0.25642942  0.25000000  1
  C  C33  1  0.25000000  0.00000000  0.99269446  1
  C  C34  1  0.00000000  0.25000000  0.99870647  1
  C  C35  1  0.99357058  0.00001985  0.25000000  1
  C  C36  1  0.25004296  0.25040345  0.75000000  1
  C  C37  1  0.25000000  0.00000000  0.50730554  1
  C  C38  1  0.00000000  0.25000000  0.50129353  1
  C  C39  1  0.99959655  0.99995704  0.75000000  1
  C  C40  1  0.25001985  0.74357058  0.25000000  1
  C  C41  1  0.25000000  0.50000000  0.99845332  1
  C  C42  1  0.00000000  0.75000000  0.99874630  1
  C  C43  1  0.00642942  0.49998015  0.25000000  1
  C  C44  1  0.24995704  0.74959655  0.75000000  1
  C  C45  1  0.25000000  0.50000000  0.50154668  1
  C  C46  1  0.00000000  0.75000000  0.50125370  1
  C  C47  1  0.00040345  0.50004296  0.75000000  1
  C  C48  1  0.75001985  0.24357058  0.25000000  1
  C  C49  1  0.75000000  0.00000000  0.99845332  1
  C  C50  1  0.50000000  0.25000000  0.99874630  1
  C  C51  1  0.50642942  0.99998015  0.25000000  1
  C  C52  1  0.74995704  0.24959655  0.75000000  1
  C  C53  1  0.75000000  0.00000000  0.50154668  1
  C  C54  1  0.50000000  0.25000000  0.50125370  1
  C  C55  1  0.50040345  0.00004296  0.75000000  1
  C  C56  1  0.74998015  0.75642942  0.25000000  1
  C  C57  1  0.75000000  0.50000000  0.99269446  1
  C  C58  1  0.50000000  0.75000000  0.99870647  1
  C  C59  1  0.49357058  0.50001985  0.25000000  1
  C  C60  1  0.75004296  0.75040345  0.75000000  1
  C  C61  1  0.75000000  0.50000000  0.50730554  1
  C  C62  1  0.50000000  0.75000000  0.50129353  1
  C  C63  1  0.49959655  0.49995704  0.75000000  1
