# generated using pymatgen
data_ZrTi15C16
_symmetry_space_group_name_H-M   'P 1'
_cell_length_a   8.78260385
_cell_length_b   8.78260385
_cell_length_c   8.78380631
_cell_angle_alpha   90.00000000
_cell_angle_beta   90.00000000
_cell_angle_gamma   90.00296884
_symmetry_Int_Tables_number   1
_chemical_formula_structural   ZrTi15C16
_chemical_formula_sum   'Zr2 Ti30 C32'
_cell_volume   677.53126043
_cell_formula_units_Z   2
loop_
 _symmetry_equiv_pos_site_id
 _symmetry_equiv_pos_as_xyz
  1  'x, y, z'
loop_
 _atom_site_type_symbol
 _atom_site_label
 _atom_site_symmetry_multiplicity
 _atom_site_fract_x
 _atom_site_fract_y
 _atom_site_fract_z
 _atom_site_occupancy
  Ti  Ti0  1  0.99849714  0.00002644  0.99741170  1
  Ti  Ti1  1  0.00000000  0.25000000  0.25000000  1
  Ti  Ti2  1  0.24997356  0.25150286  0.99741170  1
  Ti  Ti3  1  0.99849714  0.00002644  0.50258830  1
  Ti  Ti4  1  0.00000000  0.25000000  0.75000000  1
  Ti  Ti5  1  0.25000000  0.00000000  0.75000000  1
  Ti  Ti6  1  0.24997356  0.25150286  0.50258830  1
  Ti  Ti7  1  0.00150286  0.49997356  0.99741170  1
  Ti  Ti8  1  0.00000000  0.75000000  0.25000000  1
  Ti  Ti9  1  0.25000000  0.50000000  0.25000000  1
  Ti  Ti10  1  0.25002644  0.74849714  0.99741170  1
  Ti  Ti11  1  0.00150286  0.49997356  0.50258830  1
  Ti  Ti12  1  0.00000000  0.75000000  0.75000000  1
  Ti  Ti13  1  0.25000000  0.50000000  0.75000000  1
  Ti  Ti14  1  0.25002644  0.74849714  0.50258830  1
  Ti  Ti15  1  0.50150286  0.99997356  0.99741170  1
  Ti  Ti16  1  0.50000000  0.25000000  0.25000000  1
  Ti  Ti17  1  0.75000000  0.00000000  0.25000000  1
  Ti  Ti18  1  0.75002644  0.24849714  0.99741170  1
  Ti  Ti19  1  0.50150286  0.99997356  0.50258830  1
  Ti  Ti20  1  0.50000000  0.25000000  0.75000000  1
  Ti  Ti21  1  0.75000000  0.00000000  0.75000000  1
  Ti  Ti22  1  0.75002644  0.24849714  0.50258830  1
  Ti  Ti23  1  0.49849714  0.50002644  0.99741170  1
  Ti  Ti24  1  0.50000000  0.75000000  0.25000000  1
  Ti  Ti25  1  0.74997356  0.75150286  0.99741170  1
  Ti  Ti26  1  0.49849714  0.50002644  0.50258830  1
  Ti  Ti27  1  0.50000000  0.75000000  0.75000000  1
  Ti  Ti28  1  0.75000000  0.50000000  0.75000000  1
  Ti  Ti29  1  0.74997356  0.75150286  0.50258830  1
  Zr  Zr30  1  0.25000000  0.00000000  0.25000000  1
  Zr  Zr31  1  0.75000000  0.50000000  0.25000000  1
  C  C32  1  0.25001290  0.25621981  0.25000000  1
  C  C33  1  0.25000000  0.00000000  0.99285160  1
  C  C34  1  0.00000000  0.25000000  0.99861299  1
  C  C35  1  0.99378019  0.99998710  0.25000000  1
  C  C36  1  0.24995761  0.25045294  0.75000000  1
  C  C37  1  0.25000000  0.00000000  0.50714840  1
  C  C38  1  0.00000000  0.25000000  0.50138701  1
  C  C39  1  0.99954706  0.00004239  0.75000000  1
  C  C40  1  0.24998710  0.74378019  0.25000000  1
  C  C41  1  0.25000000  0.50000000  0.99831052  1
  C  C42  1  0.00000000  0.75000000  0.99864908  1
  C  C43  1  0.00621981  0.50001290  0.25000000  1
  C  C44  1  0.25004239  0.74954706  0.75000000  1
  C  C45  1  0.25000000  0.50000000  0.50168948  1
  C  C46  1  0.00000000  0.75000000  0.50135092  1
  C  C47  1  0.00045294  0.49995761  0.75000000  1
  C  C48  1  0.74998710  0.24378019  0.25000000  1
  C  C49  1  0.75000000  0.00000000  0.99831052  1
  C  C50  1  0.50000000  0.25000000  0.99864908  1
  C  C51  1  0.50621981  0.00001290  0.25000000  1
  C  C52  1  0.75004239  0.24954706  0.75000000  1
  C  C53  1  0.75000000  0.00000000  0.50168948  1
  C  C54  1  0.50000000  0.25000000  0.50135092  1
  C  C55  1  0.50045294  0.99995761  0.75000000  1
  C  C56  1  0.75001290  0.75621981  0.25000000  1
  C  C57  1  0.75000000  0.50000000  0.99285160  1
  C  C58  1  0.50000000  0.75000000  0.99861299  1
  C  C59  1  0.49378019  0.49998710  0.25000000  1
  C  C60  1  0.74995761  0.75045294  0.75000000  1
  C  C61  1  0.75000000  0.50000000  0.50714840  1
  C  C62  1  0.50000000  0.75000000  0.50138701  1
  C  C63  1  0.49954706  0.50004239  0.75000000  1
