# generated using pymatgen
data_ZrC
_symmetry_space_group_name_H-M   'P 1'
_cell_length_a   9.28668837
_cell_length_b   9.28668837
_cell_length_c   9.28710476
_cell_angle_alpha   90.00000000
_cell_angle_beta   90.00000000
_cell_angle_gamma   90.00091731
_symmetry_Int_Tables_number   1
_chemical_formula_structural   ZrC
_chemical_formula_sum   'Zr32 C32'
_cell_volume   800.94388342
_cell_formula_units_Z   32
loop_
 _symmetry_equiv_pos_site_id
 _symmetry_equiv_pos_as_xyz
  1  'x, y, z'
loop_
 _atom_site_type_symbol
 _atom_site_label
 _atom_site_symmetry_multiplicity
 _atom_site_fract_x
 _atom_site_fract_y
 _atom_site_fract_z
 _atom_site_occupancy
  Zr  Zr0  1  0.00000000  0.00000000  0.00000000  1
  Zr  Zr1  1  0.00000000  0.25000000  0.25000000  1
  Zr  Zr2  1  0.25000000  0.00000000  0.25000000  1
  Zr  Zr3  1  0.25000000  0.25000000  0.00000000  1
  Zr  Zr4  1  0.00000000  0.00000000  0.50000000  1
  Zr  Zr5  1  0.00000000  0.25000000  0.75000000  1
  Zr  Zr6  1  0.25000000  0.00000000  0.75000000  1
  Zr  Zr7  1  0.25000000  0.25000000  0.50000000  1
  Zr  Zr8  1  0.00000000  0.50000000  0.00000000  1
  Zr  Zr9  1  0.00000000  0.75000000  0.25000000  1
  Zr  Zr10  1  0.25000000  0.50000000  0.25000000  1
  Zr  Zr11  1  0.25000000  0.75000000  0.00000000  1
  Zr  Zr12  1  0.00000000  0.50000000  0.50000000  1
  Zr  Zr13  1  0.00000000  0.75000000  0.75000000  1
  Zr  Zr14  1  0.25000000  0.50000000  0.75000000  1
  Zr  Zr15  1  0.25000000  0.75000000  0.50000000  1
  Zr  Zr16  1  0.50000000  0.00000000  0.00000000  1
  Zr  Zr17  1  0.50000000  0.25000000  0.25000000  1
  Zr  Zr18  1  0.75000000  0.00000000  0.25000000  1
  Zr  Zr19  1  0.75000000  0.25000000  0.00000000  1
  Zr  Zr20  1  0.50000000  0.00000000  0.50000000  1
  Zr  Zr21  1  0.50000000  0.25000000  0.75000000  1
  Zr  Zr22  1  0.75000000  0.00000000  0.75000000  1
  Zr  Zr23  1  0.75000000  0.25000000  0.50000000  1
  Zr  Zr24  1  0.50000000  0.50000000  0.00000000  1
  Zr  Zr25  1  0.50000000  0.75000000  0.25000000  1
  Zr  Zr26  1  0.75000000  0.50000000  0.25000000  1
  Zr  Zr27  1  0.75000000  0.75000000  0.00000000  1
  Zr  Zr28  1  0.50000000  0.50000000  0.50000000  1
  Zr  Zr29  1  0.50000000  0.75000000  0.75000000  1
  Zr  Zr30  1  0.75000000  0.50000000  0.75000000  1
  Zr  Zr31  1  0.75000000  0.75000000  0.50000000  1
  C  C32  1  0.25000000  0.25000000  0.25000000  1
  C  C33  1  0.25000000  0.00000000  0.00000000  1
  C  C34  1  0.00000000  0.25000000  0.00000000  1
  C  C35  1  0.00000000  0.00000000  0.25000000  1
  C  C36  1  0.25000000  0.25000000  0.75000000  1
  C  C37  1  0.25000000  0.00000000  0.50000000  1
  C  C38  1  0.00000000  0.25000000  0.50000000  1
  C  C39  1  0.00000000  0.00000000  0.75000000  1
  C  C40  1  0.25000000  0.75000000  0.25000000  1
  C  C41  1  0.25000000  0.50000000  0.00000000  1
  C  C42  1  0.00000000  0.75000000  0.00000000  1
  C  C43  1  0.00000000  0.50000000  0.25000000  1
  C  C44  1  0.25000000  0.75000000  0.75000000  1
  C  C45  1  0.25000000  0.50000000  0.50000000  1
  C  C46  1  0.00000000  0.75000000  0.50000000  1
  C  C47  1  0.00000000  0.50000000  0.75000000  1
  C  C48  1  0.75000000  0.25000000  0.25000000  1
  C  C49  1  0.75000000  0.00000000  0.00000000  1
  C  C50  1  0.50000000  0.25000000  0.00000000  1
  C  C51  1  0.50000000  0.00000000  0.25000000  1
  C  C52  1  0.75000000  0.25000000  0.75000000  1
  C  C53  1  0.75000000  0.00000000  0.50000000  1
  C  C54  1  0.50000000  0.25000000  0.50000000  1
  C  C55  1  0.50000000  0.00000000  0.75000000  1
  C  C56  1  0.75000000  0.75000000  0.25000000  1
  C  C57  1  0.75000000  0.50000000  0.00000000  1
  C  C58  1  0.50000000  0.75000000  0.00000000  1
  C  C59  1  0.50000000  0.50000000  0.25000000  1
  C  C60  1  0.75000000  0.75000000  0.75000000  1
  C  C61  1  0.75000000  0.50000000  0.50000000  1
  C  C62  1  0.50000000  0.75000000  0.50000000  1
  C  C63  1  0.50000000  0.50000000  0.75000000  1
