# generated using pymatgen
data_Ti6Al2C3N
_symmetry_space_group_name_H-M   'P 1'
_cell_length_a   6.13929439
_cell_length_b   6.13982956
_cell_length_c   18.54697392
_cell_angle_alpha   89.99998756
_cell_angle_beta   89.99750221
_cell_angle_gamma   120.00289219
_symmetry_Int_Tables_number   1
_chemical_formula_structural   Ti6Al2C3N
_chemical_formula_sum   'Ti24 Al8 C12 N4'
_cell_volume   605.43260960
_cell_formula_units_Z   4
loop_
 _symmetry_equiv_pos_site_id
 _symmetry_equiv_pos_as_xyz
  1  'x, y, z'
loop_
 _atom_site_type_symbol
 _atom_site_label
 _atom_site_symmetry_multiplicity
 _atom_site_fract_x
 _atom_site_fract_y
 _atom_site_fract_z
 _atom_site_occupancy
  Ti  Ti0  1  0.16394460  0.33197000  0.87197715  1
  Ti  Ti1  1  0.33198288  0.16798100  0.37354459  1
  Ti  Ti2  1  0.33302942  0.16655871  0.12672128  1
  Ti  Ti3  1  0.16667926  0.33333954  0.62869055  1
  Ti  Ti4  1  0.00035189  0.00018543  0.99951161  1
  Ti  Ti5  1  0.00008360  0.00004132  0.50033449  1
  Ti  Ti6  1  0.16397024  0.83198372  0.87220267  1
  Ti  Ti7  1  0.33198294  0.66400244  0.37354459  1
  Ti  Ti8  1  0.33302928  0.66646767  0.12672124  1
  Ti  Ti9  1  0.16405682  0.83202810  0.62723008  1
  Ti  Ti10  1  0.00035133  0.50016284  0.99951151  1
  Ti  Ti11  1  0.00008383  0.50004289  0.50033449  1
  Ti  Ti12  1  0.66860615  0.33429694  0.87311017  1
  Ti  Ti13  1  0.83603076  0.16801553  0.37355664  1
  Ti  Ti14  1  0.83380752  0.16690235  0.12715358  1
  Ti  Ti15  1  0.66800580  0.33598372  0.62700816  1
  Ti  Ti16  1  0.50009557  0.00004719  0.99937672  1
  Ti  Ti17  1  0.49994915  0.99997465  0.50030021  1
  Ti  Ti18  1  0.66860821  0.83430658  0.87310969  1
  Ti  Ti19  1  0.83336317  0.66668179  0.37208011  1
  Ti  Ti20  1  0.83374053  0.66686861  0.12734628  1
  Ti  Ti21  1  0.66800563  0.83202198  0.62700785  1
  Ti  Ti22  1  0.50012208  0.50005832  0.99936480  1
  Ti  Ti23  1  0.49988930  0.49994500  0.50031381  1
  Al  Al24  1  0.00091016  0.00171046  0.25025305  1
  Al  Al25  1  0.99781342  0.99777625  0.75019560  1
  Al  Al26  1  0.00091045  0.49919649  0.25025305  1
  Al  Al27  1  0.99781379  0.50003243  0.75019523  1
  Al  Al28  1  0.49996624  -0.00001768  0.25073486  1
  Al  Al29  1  0.50138485  0.00068980  0.75012386  1
  Al  Al30  1  0.49827188  0.49913391  0.25015101  1
  Al  Al31  1  0.50284074  0.50141973  0.75065048  1
  N  N32  1  0.16668398  0.33334234  0.43154874  1
  N  N33  1  0.83352069  0.16675891  0.93036916  1
  N  N34  1  0.83344580  0.66672077  0.93044680  1
  N  N35  1  0.83343342  0.66671675  0.56897121  1
  C  C36  1  0.33312019  0.16661213  0.93009957  1
  C  C37  1  0.33295009  0.16691214  0.56960002  1
  C  C38  1  0.16617710  0.33308750  0.06835094  1
  C  C39  1  0.16612292  0.83306187  0.43101237  1
  C  C40  1  0.33311741  0.66650318  0.93010024  1
  C  C41  1  0.33295025  0.66603794  0.56960002  1
  C  C42  1  0.16609966  0.83304782  0.06844958  1
  C  C43  1  0.66695249  0.33389936  0.43101012  1
  C  C44  1  0.83401510  0.16700755  0.56951595  1
  C  C45  1  0.66741362  0.33375971  0.06865777  1
  C  C46  1  0.66695259  0.83305381  0.43101015  1
  C  C47  1  0.66741321  0.83365057  0.06865794  1
