# generated using pymatgen
data_Ti6Al2C3N
_symmetry_space_group_name_H-M   'P 1'
_cell_length_a   6.13875593
_cell_length_b   6.13928995
_cell_length_c   18.54529874
_cell_angle_alpha   89.99998543
_cell_angle_beta   89.99755691
_cell_angle_gamma   120.00289326
_symmetry_Int_Tables_number   1
_chemical_formula_structural   Ti6Al2C3N
_chemical_formula_sum   'Ti24 Al8 C12 N4'
_cell_volume   605.27162377
_cell_formula_units_Z   4
loop_
 _symmetry_equiv_pos_site_id
 _symmetry_equiv_pos_as_xyz
  1  'x, y, z'
loop_
 _atom_site_type_symbol
 _atom_site_label
 _atom_site_symmetry_multiplicity
 _atom_site_fract_x
 _atom_site_fract_y
 _atom_site_fract_z
 _atom_site_occupancy
  Ti  Ti0  1  0.16395166  0.33197411  0.87198515  1
  Ti  Ti1  1  0.33197578  0.16798683  0.37351824  1
  Ti  Ti2  1  0.33303220  0.16655893  0.12671948  1
  Ti  Ti3  1  0.16667938  0.33333956  0.62871020  1
  Ti  Ti4  1  0.00035660  0.00018792  0.99952306  1
  Ti  Ti5  1  0.00008198  0.00003725  0.50034342  1
  Ti  Ti6  1  0.16397738  0.83198660  0.87221194  1
  Ti  Ti7  1  0.33197578  0.66398955  0.37351825  1
  Ti  Ti8  1  0.33303214  0.66647044  0.12671947  1
  Ti  Ti9  1  0.16403817  0.83201877  0.62725033  1
  Ti  Ti10  1  0.00035661  0.50016534  0.99952294  1
  Ti  Ti11  1  0.00008256  0.50004564  0.50034320  1
  Ti  Ti12  1  0.66860173  0.33429412  0.87311324  1
  Ti  Ti13  1  0.83604540  0.16802302  0.37352961  1
  Ti  Ti14  1  0.83380463  0.16690081  0.12715240  1
  Ti  Ti15  1  0.66801400  0.33600159  0.62702853  1
  Ti  Ti16  1  0.50009058  0.00004358  0.99938761  1
  Ti  Ti17  1  0.49994788  0.99997375  0.50030907  1
  Ti  Ti18  1  0.66860178  0.83430394  0.87311323  1
  Ti  Ti19  1  0.83336354  0.66668185  0.37205778  1
  Ti  Ti20  1  0.83374012  0.66686854  0.12734753  1
  Ti  Ti21  1  0.66801376  0.83201239  0.62702804  1
  Ti  Ti22  1  0.50011701  0.50005683  0.99937528  1
  Ti  Ti23  1  0.49989296  0.49994698  0.50032272  1
  Al  Al24  1  0.00090666  0.00170594  0.25023537  1
  Al  Al25  1  0.99781631  0.99777914  0.75017908  1
  Al  Al26  1  0.00090696  0.49919743  0.25023535  1
  Al  Al27  1  0.99781613  0.50003217  0.75017889  1
  Al  Al28  1  0.49996775  -0.00001695  0.25071427  1
  Al  Al29  1  0.50138432  0.00068949  0.75010689  1
  Al  Al30  1  0.49827676  0.49913633  0.25013334  1
  Al  Al31  1  0.50283822  0.50141853  0.75063280  1
  N  N32  1  0.16668447  0.33334254  0.43154918  1
  N  N33  1  0.83352127  0.16675894  0.93037143  1
  N  N34  1  0.83344804  0.66672207  0.93044776  1
  N  N35  1  0.83343342  0.66671700  0.56896594  1
  C  C36  1  0.33311574  0.16660876  0.93011018  1
  C  C37  1  0.33294942  0.16691131  0.56959918  1
  C  C38  1  0.16617946  0.33308828  0.06835737  1
  C  C39  1  0.16611484  0.83305779  0.43102007  1
  C  C40  1  0.33311561  0.66650337  0.93011033  1
  C  C41  1  0.33295018  0.66603868  0.56959936  1
  C  C42  1  0.16610590  0.83305133  0.06845439  1
  C  C43  1  0.66695601  0.33390823  0.43101883  1
  C  C44  1  0.83401421  0.16700668  0.56951530  1
  C  C45  1  0.66740926  0.33375420  0.06866249  1
  C  C46  1  0.66695616  0.83304844  0.43101890  1
  C  C47  1  0.66740927  0.83365196  0.06866255  1
