# generated using pymatgen
data_TaTi3C4
_symmetry_space_group_name_H-M   'P 1'
_cell_length_a   8.74893933
_cell_length_b   4.38021499
_cell_length_c   4.37398133
_cell_angle_alpha   90.00000000
_cell_angle_beta   90.00000000
_cell_angle_gamma   90.00000000
_symmetry_Int_Tables_number   1
_chemical_formula_structural   TaTi3C4
_chemical_formula_sum   'Ta2 Ti6 C8'
_cell_volume   167.62074129
_cell_formula_units_Z   2
loop_
 _symmetry_equiv_pos_site_id
 _symmetry_equiv_pos_as_xyz
  1  'x, y, z'
loop_
 _atom_site_type_symbol
 _atom_site_label
 _atom_site_symmetry_multiplicity
 _atom_site_fract_x
 _atom_site_fract_y
 _atom_site_fract_z
 _atom_site_occupancy
  Ta  Ta0  1  0.00371485  0.00000000  0.00000000  1
  Ta  Ta1  1  0.74628515  0.50000000  0.00000000  1
  Ti  Ti2  1  0.00381971  0.50000000  0.50000000  1
  Ti  Ti3  1  0.25344315  0.00000000  0.50000000  1
  Ti  Ti4  1  0.25313121  0.50000000  0.00000000  1
  Ti  Ti5  1  0.49686879  0.00000000  0.00000000  1
  Ti  Ti6  1  0.49655685  0.50000000  0.50000000  1
  Ti  Ti7  1  0.74618029  0.00000000  0.50000000  1
  C  C8  1  0.25086479  0.50000000  0.50000000  1
  C  C9  1  0.25220211  0.00000000  0.00000000  1
  C  C10  1  0.00231502  0.50000000  0.00000000  1
  C  C11  1  0.00093059  0.00000000  0.50000000  1
  C  C12  1  0.74906941  0.50000000  0.50000000  1
  C  C13  1  0.74768498  0.00000000  0.00000000  1
  C  C14  1  0.49779789  0.50000000  0.00000000  1
  C  C15  1  0.49913521  0.00000000  0.50000000  1
