# generated using pymatgen
data_TaTiC2
_symmetry_space_group_name_H-M   'P 1'
_cell_length_a   8.82758503
_cell_length_b   4.41455225
_cell_length_c   4.41273011
_cell_angle_alpha   90.00000000
_cell_angle_beta   90.00000000
_cell_angle_gamma   90.00000000
_symmetry_Int_Tables_number   1
_chemical_formula_structural   TaTiC2
_chemical_formula_sum   'Ta4 Ti4 C8'
_cell_volume   171.96336586
_cell_formula_units_Z   4
loop_
 _symmetry_equiv_pos_site_id
 _symmetry_equiv_pos_as_xyz
  1  'x, y, z'
loop_
 _atom_site_type_symbol
 _atom_site_label
 _atom_site_symmetry_multiplicity
 _atom_site_fract_x
 _atom_site_fract_y
 _atom_site_fract_z
 _atom_site_occupancy
  Ta  Ta0  1  0.00443847  0.00000000  0.00000000  1
  Ta  Ta1  1  0.00472738  0.50000000  0.50000000  1
  Ta  Ta2  1  0.49622531  0.50000000  0.50000000  1
  Ta  Ta3  1  0.74588475  0.00000000  0.50000000  1
  Ti  Ti4  1  0.25358934  0.00000000  0.50000000  1
  Ti  Ti5  1  0.25320341  0.50000000  0.00000000  1
  Ti  Ti6  1  0.49607918  0.00000000  0.00000000  1
  Ti  Ti7  1  0.74583124  0.50000000  0.00000000  1
  C  C8  1  0.24990154  0.50000000  0.50000000  1
  C  C9  1  0.25169312  0.00000000  0.00000000  1
  C  C10  1  0.00035671  0.50000000  0.00000000  1
  C  C11  1  0.00218345  0.00000000  0.50000000  1
  C  C12  1  0.75008049  0.50000000  0.50000000  1
  C  C13  1  0.74834057  0.00000000  0.00000000  1
  C  C14  1  0.49980372  0.50000000  0.00000000  1
  C  C15  1  0.49766132  0.00000000  0.50000000  1
