# generated using pymatgen
data_TaCr3C4
_symmetry_space_group_name_H-M   'P 1'
_cell_length_a   8.32765973
_cell_length_b   4.21768030
_cell_length_c   4.21768030
_cell_angle_alpha   90.00000000
_cell_angle_beta   90.00000000
_cell_angle_gamma   90.00000000
_symmetry_Int_Tables_number   1
_chemical_formula_structural   TaCr3C4
_chemical_formula_sum   'Ta2 Cr6 C8'
_cell_volume   148.13929919
_cell_formula_units_Z   2
loop_
 _symmetry_equiv_pos_site_id
 _symmetry_equiv_pos_as_xyz
  1  'x, y, z'
loop_
 _atom_site_type_symbol
 _atom_site_label
 _atom_site_symmetry_multiplicity
 _atom_site_fract_x
 _atom_site_fract_y
 _atom_site_fract_z
 _atom_site_occupancy
  Cr  Cr0  1  0.00000000  0.00000000  0.00000000  1
  Cr  Cr1  1  0.00000000  0.50000000  0.50000000  1
  Cr  Cr2  1  0.25000000  0.00000000  0.50000000  1
  Cr  Cr3  1  0.50000000  0.00000000  0.00000000  1
  Cr  Cr4  1  0.50000000  0.50000000  0.50000000  1
  Cr  Cr5  1  0.75000000  0.50000000  0.00000000  1
  Ta  Ta6  1  0.25000000  0.50000000  0.00000000  1
  Ta  Ta7  1  0.75000000  0.00000000  0.50000000  1
  C  C8  1  0.25000000  0.50000000  0.50000000  1
  C  C9  1  0.25000000  0.00000000  0.00000000  1
  C  C10  1  0.99248760  0.50000000  0.00000000  1
  C  C11  1  0.00751240  0.00000000  0.50000000  1
  C  C12  1  0.75000000  0.50000000  0.50000000  1
  C  C13  1  0.75000000  0.00000000  0.00000000  1
  C  C14  1  0.50751240  0.50000000  0.00000000  1
  C  C15  1  0.49248760  0.00000000  0.50000000  1
