# generated using pymatgen
data_MoC
_symmetry_space_group_name_H-M   'P 1'
_cell_length_a   5.83430772
_cell_length_b   5.83430772
_cell_length_c   5.65361645
_cell_angle_alpha   90.00000000
_cell_angle_beta   90.00000000
_cell_angle_gamma   120.00000000
_symmetry_Int_Tables_number   1
_chemical_formula_structural   MoC
_chemical_formula_sum   'Mo8 C8'
_cell_volume   166.66163446
_cell_formula_units_Z   8
loop_
 _symmetry_equiv_pos_site_id
 _symmetry_equiv_pos_as_xyz
  1  'x, y, z'
loop_
 _atom_site_type_symbol
 _atom_site_label
 _atom_site_symmetry_multiplicity
 _atom_site_fract_x
 _atom_site_fract_y
 _atom_site_fract_z
 _atom_site_occupancy
  Mo  Mo0  1  0.00000000  0.00000000  0.00000000  1
  Mo  Mo1  1  0.00000000  0.00000000  0.50000000  1
  Mo  Mo2  1  0.00000000  0.50000000  0.00000000  1
  Mo  Mo3  1  0.00000000  0.50000000  0.50000000  1
  Mo  Mo4  1  0.50000000  0.00000000  0.00000000  1
  Mo  Mo5  1  0.50000000  0.00000000  0.50000000  1
  Mo  Mo6  1  0.50000000  0.50000000  0.00000000  1
  Mo  Mo7  1  0.50000000  0.50000000  0.50000000  1
  C  C8  1  0.16666667  0.33333333  0.25000000  1
  C  C9  1  0.16666667  0.33333333  0.75000000  1
  C  C10  1  0.16666667  0.83333333  0.25000000  1
  C  C11  1  0.16666667  0.83333333  0.75000000  1
  C  C12  1  0.66666667  0.33333333  0.25000000  1
  C  C13  1  0.66666667  0.33333333  0.75000000  1
  C  C14  1  0.66666667  0.83333333  0.25000000  1
  C  C15  1  0.66666667  0.83333333  0.75000000  1
