# generated using pymatgen
data_TaWC2
_symmetry_space_group_name_H-M   'P 1'
_cell_length_a   8.86052168
_cell_length_b   4.43048927
_cell_length_c   4.43048927
_cell_angle_alpha   90.00000000
_cell_angle_beta   90.00000000
_cell_angle_gamma   90.00000000
_symmetry_Int_Tables_number   1
_chemical_formula_structural   TaWC2
_chemical_formula_sum   'Ta4 W4 C8'
_cell_volume   173.92526380
_cell_formula_units_Z   4
loop_
 _symmetry_equiv_pos_site_id
 _symmetry_equiv_pos_as_xyz
  1  'x, y, z'
loop_
 _atom_site_type_symbol
 _atom_site_label
 _atom_site_symmetry_multiplicity
 _atom_site_fract_x
 _atom_site_fract_y
 _atom_site_fract_z
 _atom_site_occupancy
  Ta  Ta0  1  0.00000000  0.00000000  0.00000000  1
  Ta  Ta1  1  0.00000000  0.50000000  0.50000000  1
  Ta  Ta2  1  0.25228619  0.50000000  0.00000000  1
  Ta  Ta3  1  0.74771381  0.50000000  0.00000000  1
  W  W4  1  0.25048233  0.00000000  0.50000000  1
  W  W5  1  0.50000000  0.00000000  0.00000000  1
  W  W6  1  0.50000000  0.50000000  0.50000000  1
  W  W7  1  0.74951767  0.00000000  0.50000000  1
  C  C8  1  0.25163655  0.50000000  0.50000000  1
  C  C9  1  0.25163655  0.00000000  0.00000000  1
  C  C10  1  0.00000000  0.50000000  0.00000000  1
  C  C11  1  0.00000000  0.00000000  0.50000000  1
  C  C12  1  0.74836345  0.50000000  0.50000000  1
  C  C13  1  0.74836345  0.00000000  0.00000000  1
  C  C14  1  0.50000000  0.50000000  0.00000000  1
  C  C15  1  0.50000000  0.00000000  0.50000000  1
