# generated using pymatgen
data_WC
_symmetry_space_group_name_H-M   'P 1'
_cell_length_a   5.84850516
_cell_length_b   5.84850516
_cell_length_c   5.70033510
_cell_angle_alpha   90.00000000
_cell_angle_beta   90.00000000
_cell_angle_gamma   120.00000001
_symmetry_Int_Tables_number   1
_chemical_formula_structural   WC
_chemical_formula_sum   'W8 C8'
_cell_volume   168.85766255
_cell_formula_units_Z   8
loop_
 _symmetry_equiv_pos_site_id
 _symmetry_equiv_pos_as_xyz
  1  'x, y, z'
loop_
 _atom_site_type_symbol
 _atom_site_label
 _atom_site_symmetry_multiplicity
 _atom_site_fract_x
 _atom_site_fract_y
 _atom_site_fract_z
 _atom_site_occupancy
  W  W0  1  0.00000000  0.00000000  0.00000000  1
  W  W1  1  0.00000000  0.00000000  0.50000000  1
  W  W2  1  0.00000000  0.50000000  0.00000000  1
  W  W3  1  0.00000000  0.50000000  0.50000000  1
  W  W4  1  0.50000000  0.00000000  0.00000000  1
  W  W5  1  0.50000000  0.00000000  0.50000000  1
  W  W6  1  0.50000000  0.50000000  0.00000000  1
  W  W7  1  0.50000000  0.50000000  0.50000000  1
  C  C8  1  0.33333333  0.16666667  0.25000000  1
  C  C9  1  0.33333333  0.16666667  0.75000000  1
  C  C10  1  0.33333333  0.66666667  0.25000000  1
  C  C11  1  0.33333333  0.66666667  0.75000000  1
  C  C12  1  0.83333333  0.16666667  0.25000000  1
  C  C13  1  0.83333333  0.16666667  0.75000000  1
  C  C14  1  0.83333333  0.66666667  0.25000000  1
  C  C15  1  0.83333333  0.66666667  0.75000000  1
