# generated using pymatgen
data_Ta3WC4
_symmetry_space_group_name_H-M   'P 1'
_cell_length_a   8.89716040
_cell_length_b   4.45591608
_cell_length_c   4.45574731
_cell_angle_alpha   90.00000000
_cell_angle_beta   90.00000000
_cell_angle_gamma   90.00000000
_symmetry_Int_Tables_number   1
_chemical_formula_structural   Ta3WC4
_chemical_formula_sum   'Ta6 W2 C8'
_cell_volume   176.64810252
_cell_formula_units_Z   2
loop_
 _symmetry_equiv_pos_site_id
 _symmetry_equiv_pos_as_xyz
  1  'x, y, z'
loop_
 _atom_site_type_symbol
 _atom_site_label
 _atom_site_symmetry_multiplicity
 _atom_site_fract_x
 _atom_site_fract_y
 _atom_site_fract_z
 _atom_site_occupancy
  Ta  Ta0  1  0.99844232  0.00000000  0.00000000  1
  Ta  Ta1  1  0.24865010  0.00000000  0.50000000  1
  Ta  Ta2  1  0.24863210  0.50000000  0.00000000  1
  Ta  Ta3  1  0.50134990  0.00000000  0.00000000  1
  Ta  Ta4  1  0.50136790  0.50000000  0.50000000  1
  Ta  Ta5  1  0.75155768  0.00000000  0.50000000  1
  W  W6  1  0.99921907  0.50000000  0.50000000  1
  W  W7  1  0.75078093  0.50000000  0.00000000  1
  C  C8  1  0.24934342  0.50000000  0.50000000  1
  C  C9  1  0.24919076  0.00000000  0.00000000  1
  C  C10  1  0.99886401  0.50000000  0.00000000  1
  C  C11  1  0.99951059  0.00000000  0.50000000  1
  C  C12  1  0.75113599  0.50000000  0.50000000  1
  C  C13  1  0.75048941  0.00000000  0.00000000  1
  C  C14  1  0.50065658  0.50000000  0.00000000  1
  C  C15  1  0.50080924  0.00000000  0.50000000  1
