# generated using pymatgen
data_TaCrC2
_symmetry_space_group_name_H-M   'P 1'
_cell_length_a   8.58314571
_cell_length_b   4.32757717
_cell_length_c   4.32757717
_cell_angle_alpha   90.00000000
_cell_angle_beta   90.00000000
_cell_angle_gamma   90.00000000
_symmetry_Int_Tables_number   1
_chemical_formula_structural   TaCrC2
_chemical_formula_sum   'Ta4 Cr4 C8'
_cell_volume   160.74450193
_cell_formula_units_Z   4
loop_
 _symmetry_equiv_pos_site_id
 _symmetry_equiv_pos_as_xyz
  1  'x, y, z'
loop_
 _atom_site_type_symbol
 _atom_site_label
 _atom_site_symmetry_multiplicity
 _atom_site_fract_x
 _atom_site_fract_y
 _atom_site_fract_z
 _atom_site_occupancy
  Ta  Ta0  1  0.00000000  0.00000000  0.00000000  1
  Ta  Ta1  1  0.25000000  0.50000000  0.00000000  1
  Ta  Ta2  1  0.50000000  0.50000000  0.50000000  1
  Ta  Ta3  1  0.75000000  0.50000000  0.00000000  1
  Cr  Cr4  1  0.00000000  0.50000000  0.50000000  1
  Cr  Cr5  1  0.25000000  0.00000000  0.50000000  1
  Cr  Cr6  1  0.50000000  0.00000000  0.00000000  1
  Cr  Cr7  1  0.75000000  0.00000000  0.50000000  1
  C  C8  1  0.24475242  0.50000000  0.50000000  1
  C  C9  1  0.25524758  0.00000000  0.00000000  1
  C  C10  1  0.00000000  0.50000000  0.00000000  1
  C  C11  1  0.00000000  0.00000000  0.50000000  1
  C  C12  1  0.75524758  0.50000000  0.50000000  1
  C  C13  1  0.74475242  0.00000000  0.00000000  1
  C  C14  1  0.50000000  0.50000000  0.00000000  1
  C  C15  1  0.50000000  0.00000000  0.50000000  1
