# generated using pymatgen
data_Zr3MoC4
_symmetry_space_group_name_H-M   'P 1'
_cell_length_a   6.33669443
_cell_length_b   6.33669443
_cell_length_c   5.83193704
_cell_angle_alpha   90.00000000
_cell_angle_beta   90.00000000
_cell_angle_gamma   119.85894481
_symmetry_Int_Tables_number   1
_chemical_formula_structural   Zr3MoC4
_chemical_formula_sum   'Zr6 Mo2 C8'
_cell_volume   203.08812348
_cell_formula_units_Z   2
loop_
 _symmetry_equiv_pos_site_id
 _symmetry_equiv_pos_as_xyz
  1  'x, y, z'
loop_
 _atom_site_type_symbol
 _atom_site_label
 _atom_site_symmetry_multiplicity
 _atom_site_fract_x
 _atom_site_fract_y
 _atom_site_fract_z
 _atom_site_occupancy
  Zr  Zr0  1  0.99229293  0.99215792  0.00000000  1
  Zr  Zr1  1  0.00784208  0.00770707  0.50000000  1
  Zr  Zr2  1  0.99944370  0.50055630  0.50000000  1
  Zr  Zr3  1  0.49944370  0.00055630  0.00000000  1
  Zr  Zr4  1  0.50784208  0.50770707  0.00000000  1
  Zr  Zr5  1  0.49229293  0.49215792  0.50000000  1
  C  C6  1  0.15773478  0.34226522  0.22796379  1
  C  C7  1  0.15773478  0.34226522  0.77203621  1
  C  C8  1  0.17433503  0.82566497  0.25000000  1
  C  C9  1  0.17433503  0.82566497  0.75000000  1
  C  C10  1  0.67433503  0.32566497  0.25000000  1
  C  C11  1  0.67433503  0.32566497  0.75000000  1
  C  C12  1  0.65773478  0.84226522  0.27203621  1
  C  C13  1  0.65773478  0.84226522  0.72796379  1
  Mo  Mo14  1  0.00294835  0.49705165  0.00000000  1
  Mo  Mo15  1  0.50294835  0.99705165  0.50000000  1
