# generated using pymatgen
data_ZrW3C4
_symmetry_space_group_name_H-M   'P 1'
_cell_length_a   5.98530651
_cell_length_b   5.98530652
_cell_length_c   5.76877340
_cell_angle_alpha   90.00000000
_cell_angle_beta   90.00000000
_cell_angle_gamma   119.79822056
_symmetry_Int_Tables_number   1
_chemical_formula_structural   ZrW3C4
_chemical_formula_sum   'Zr2 W6 C8'
_cell_volume   179.33553494
_cell_formula_units_Z   2
loop_
 _symmetry_equiv_pos_site_id
 _symmetry_equiv_pos_as_xyz
  1  'x, y, z'
loop_
 _atom_site_type_symbol
 _atom_site_label
 _atom_site_symmetry_multiplicity
 _atom_site_fract_x
 _atom_site_fract_y
 _atom_site_fract_z
 _atom_site_occupancy
  W  W0  1  0.00170834  0.99829166  0.00000000  1
  W  W1  1  0.99720557  0.49922812  0.00000000  1
  W  W2  1  0.00077188  0.50279443  0.50000000  1
  W  W3  1  0.50077188  0.00279443  0.00000000  1
  W  W4  1  0.49720557  0.99922812  0.50000000  1
  W  W5  1  0.50170834  0.49829166  0.50000000  1
  C  C6  1  0.34040295  0.15959705  0.25000000  1
  C  C7  1  0.34040295  0.15959705  0.75000000  1
  C  C8  1  0.32742322  0.67257678  0.26909488  1
  C  C9  1  0.32742322  0.67257678  0.73090512  1
  C  C10  1  0.82742322  0.17257678  0.23090512  1
  C  C11  1  0.82742322  0.17257678  0.76909488  1
  C  C12  1  0.84040295  0.65959705  0.25000000  1
  C  C13  1  0.84040295  0.65959705  0.75000000  1
  Zr  Zr14  1  0.99799519  0.00200481  0.50000000  1
  Zr  Zr15  1  0.49799519  0.50200481  0.00000000  1
