# generated using pymatgen
data_ZrWC2
_symmetry_space_group_name_H-M   'P 1'
_cell_length_a   6.14489681
_cell_length_b   6.19675370
_cell_length_c   5.80215682
_cell_angle_alpha   90.00000000
_cell_angle_beta   90.00000000
_cell_angle_gamma   120.27955525
_symmetry_Int_Tables_number   1
_chemical_formula_structural   ZrWC2
_chemical_formula_sum   'Zr4 W4 C8'
_cell_volume   190.79571508
_cell_formula_units_Z   4
loop_
 _symmetry_equiv_pos_site_id
 _symmetry_equiv_pos_as_xyz
  1  'x, y, z'
loop_
 _atom_site_type_symbol
 _atom_site_label
 _atom_site_symmetry_multiplicity
 _atom_site_fract_x
 _atom_site_fract_y
 _atom_site_fract_z
 _atom_site_occupancy
  Zr  Zr0  1  0.00058993  0.00287082  0.00000000  1
  Zr  Zr1  1  0.00058993  0.49771911  0.50000000  1
  Zr  Zr2  1  0.50455011  0.01406828  0.00000000  1
  Zr  Zr3  1  0.50455011  0.99048183  0.50000000  1
  C  C4  1  0.33239388  0.18693766  0.27295366  1
  C  C5  1  0.33239388  0.18693766  0.72704634  1
  C  C6  1  0.33239388  0.64545623  0.22704634  1
  C  C7  1  0.33239388  0.64545623  0.77295366  1
  C  C8  1  0.84498840  0.17249420  0.25000000  1
  C  C9  1  0.84498840  0.17249420  0.75000000  1
  C  C10  1  0.81944658  0.65972330  0.25000000  1
  C  C11  1  0.81944658  0.65972330  0.75000000  1
  W  W12  1  0.00235920  0.00725763  0.50000000  1
  W  W13  1  0.00235920  0.49510157  0.00000000  1
  W  W14  1  0.49661135  0.49858219  0.00000000  1
  W  W15  1  0.49661135  0.49802915  0.50000000  1
