# generated using pymatgen
data_ZrMo3C4
_symmetry_space_group_name_H-M   'P 1'
_cell_length_a   5.99168575
_cell_length_b   5.99168575
_cell_length_c   5.73906686
_cell_angle_alpha   90.00000000
_cell_angle_beta   90.00000000
_cell_angle_gamma   120.34818826
_symmetry_Int_Tables_number   1
_chemical_formula_structural   ZrMo3C4
_chemical_formula_sum   'Zr2 Mo6 C8'
_cell_volume   177.80153200
_cell_formula_units_Z   2
loop_
 _symmetry_equiv_pos_site_id
 _symmetry_equiv_pos_as_xyz
  1  'x, y, z'
loop_
 _atom_site_type_symbol
 _atom_site_label
 _atom_site_symmetry_multiplicity
 _atom_site_fract_x
 _atom_site_fract_y
 _atom_site_fract_z
 _atom_site_occupancy
  Mo  Mo0  1  0.99936721  0.00063279  0.00000000  1
  Mo  Mo1  1  0.00154920  0.49845080  0.00000000  1
  Mo  Mo2  1  0.99987438  0.50012562  0.50000000  1
  Mo  Mo3  1  0.50154920  0.99845080  0.00000000  1
  Mo  Mo4  1  0.49987438  0.00012562  0.50000000  1
  Mo  Mo5  1  0.49936721  0.50063279  0.00000000  1
  C  C6  1  0.16143195  0.33856805  0.22744688  1
  C  C7  1  0.16143195  0.33856805  0.77255312  1
  C  C8  1  0.17278440  0.82721560  0.24847968  1
  C  C9  1  0.17278440  0.82721560  0.75152032  1
  C  C10  1  0.67278440  0.32721560  0.24847968  1
  C  C11  1  0.67278440  0.32721560  0.75152032  1
  C  C12  1  0.66143195  0.83856805  0.22744688  1
  C  C13  1  0.66143195  0.83856805  0.77255312  1
  Zr  Zr14  1  0.99744319  0.00255681  0.50000000  1
  Zr  Zr15  1  0.49744319  0.50255681  0.50000000  1
