# generated using pymatgen
data_Hf3MoC4
_symmetry_space_group_name_H-M   'P 1'
_cell_length_a   6.27589882
_cell_length_b   6.27589882
_cell_length_c   5.78842737
_cell_angle_alpha   90.00000000
_cell_angle_beta   90.00000000
_cell_angle_gamma   119.76203986
_symmetry_Int_Tables_number   1
_chemical_formula_structural   Hf3MoC4
_chemical_formula_sum   'Hf6 Mo2 C8'
_cell_volume   197.91534644
_cell_formula_units_Z   2
loop_
 _symmetry_equiv_pos_site_id
 _symmetry_equiv_pos_as_xyz
  1  'x, y, z'
loop_
 _atom_site_type_symbol
 _atom_site_label
 _atom_site_symmetry_multiplicity
 _atom_site_fract_x
 _atom_site_fract_y
 _atom_site_fract_z
 _atom_site_occupancy
  Mo  Mo0  1  0.00197126  0.99802874  0.00000000  1
  Mo  Mo1  1  0.50197126  0.49802874  0.50000000  1
  C  C2  1  0.17285009  0.32714991  0.25000000  1
  C  C3  1  0.17285009  0.32714991  0.75000000  1
  C  C4  1  0.15954750  0.84045250  0.23129474  1
  C  C5  1  0.15954750  0.84045250  0.76870526  1
  C  C6  1  0.65954750  0.34045250  0.26870526  1
  C  C7  1  0.65954750  0.34045250  0.73129474  1
  C  C8  1  0.67285009  0.82714991  0.25000000  1
  C  C9  1  0.67285009  0.82714991  0.75000000  1
  Hf  Hf10  1  0.99995083  0.00004917  0.50000000  1
  Hf  Hf11  1  0.99323913  0.49328973  0.00000000  1
  Hf  Hf12  1  0.00671027  0.50676087  0.50000000  1
  Hf  Hf13  1  0.50671027  0.00676087  0.00000000  1
  Hf  Hf14  1  0.49323913  0.99328973  0.50000000  1
  Hf  Hf15  1  0.49995083  0.50004917  0.00000000  1
