# generated using pymatgen
data_HfMo3C4
_symmetry_space_group_name_H-M   'P 1'
_cell_length_a   5.97026670
_cell_length_b   5.97026671
_cell_length_c   5.72168725
_cell_angle_alpha   90.00000000
_cell_angle_beta   90.00000000
_cell_angle_gamma   120.18467740
_symmetry_Int_Tables_number   1
_chemical_formula_structural   HfMo3C4
_chemical_formula_sum   'Hf2 Mo6 C8'
_cell_volume   176.29135176
_cell_formula_units_Z   2
loop_
 _symmetry_equiv_pos_site_id
 _symmetry_equiv_pos_as_xyz
  1  'x, y, z'
loop_
 _atom_site_type_symbol
 _atom_site_label
 _atom_site_symmetry_multiplicity
 _atom_site_fract_x
 _atom_site_fract_y
 _atom_site_fract_z
 _atom_site_occupancy
  Mo  Mo0  1  0.99970454  0.00029546  0.00000000  1
  Mo  Mo1  1  0.00188810  0.49811190  0.00000000  1
  Mo  Mo2  1  0.99948245  0.50051755  0.50000000  1
  Mo  Mo3  1  0.50188810  0.99811190  0.00000000  1
  Mo  Mo4  1  0.49948245  0.00051755  0.50000000  1
  Mo  Mo5  1  0.49970454  0.50029546  0.00000000  1
  C  C6  1  0.16238981  0.33761019  0.22976536  1
  C  C7  1  0.16238981  0.33761019  0.77023464  1
  C  C8  1  0.17177670  0.82822330  0.24897996  1
  C  C9  1  0.17177670  0.82822330  0.75102004  1
  C  C10  1  0.67177670  0.32822330  0.24897996  1
  C  C11  1  0.67177670  0.32822330  0.75102004  1
  C  C12  1  0.66238981  0.83761019  0.22976536  1
  C  C13  1  0.66238981  0.83761019  0.77023464  1
  Hf  Hf14  1  0.99725858  0.00274142  0.50000000  1
  Hf  Hf15  1  0.49725858  0.50274142  0.50000000  1
