# generated using pymatgen
data_FeNi2W
_symmetry_space_group_name_H-M   'P 1'
_cell_length_a   6.86288256
_cell_length_b   6.84259622
_cell_length_c   4.42756716
_cell_angle_alpha   102.14618771
_cell_angle_beta   101.88256206
_cell_angle_gamma   98.67548106
_symmetry_Int_Tables_number   1
_chemical_formula_structural   FeNi2W
_chemical_formula_sum   'Fe4 Ni8 W4'
_cell_volume   194.76844974
_cell_formula_units_Z   4
loop_
 _symmetry_equiv_pos_site_id
 _symmetry_equiv_pos_as_xyz
  1  'x, y, z'
loop_
 _atom_site_type_symbol
 _atom_site_label
 _atom_site_symmetry_multiplicity
 _atom_site_fract_x
 _atom_site_fract_y
 _atom_site_fract_z
 _atom_site_occupancy
  Fe  Fe0  1  0.12077943  0.37478713  0.99172840  1
  Fe  Fe1  1  0.87593758  0.12587775  0.51761255  1
  Fe  Fe2  1  0.12484997  0.86542032  0.49654704  1
  Fe  Fe3  1  0.00268074  0.49783507  0.49479192  1
  Ni  Ni4  1  0.89119093  0.62504094  -0.00193579  1
  Ni  Ni5  1  0.49023638  0.49781927  0.01027327  1
  Ni  Ni6  1  0.25150578  0.74108511  0.98966354  1
  Ni  Ni7  1  0.37185370  0.13148108  0.98939424  1
  Ni  Ni8  1  0.75863498  0.74463706  0.48697231  1
  Ni  Ni9  1  0.62157845  0.38812641  0.52731031  1
  Ni  Ni10  1  0.36196621  0.62201971  0.48984193  1
  Ni  Ni11  1  0.24644725  0.26026128  0.50141322  1
  W  W12  1  0.62447733  0.84797213  0.97230698  1
  W  W13  1  0.75021743  0.27600382  0.04193712  1
  W  W14  1  0.01922905  -0.00282157  0.01424886  1
  W  W15  1  0.48789933  0.00890695  0.47939532  1
