# generated using pymatgen
data_HfMoC2
_symmetry_space_group_name_H-M   'P 1'
_cell_length_a   6.11813900
_cell_length_b   6.11813900
_cell_length_c   5.75733155
_cell_angle_alpha   90.00000000
_cell_angle_beta   90.00000000
_cell_angle_gamma   119.72391450
_symmetry_Int_Tables_number   1
_chemical_formula_structural   HfMoC2
_chemical_formula_sum   'Hf4 Mo4 C8'
_cell_volume   187.15095896
_cell_formula_units_Z   4
loop_
 _symmetry_equiv_pos_site_id
 _symmetry_equiv_pos_as_xyz
  1  'x, y, z'
loop_
 _atom_site_type_symbol
 _atom_site_label
 _atom_site_symmetry_multiplicity
 _atom_site_fract_x
 _atom_site_fract_y
 _atom_site_fract_z
 _atom_site_occupancy
  Hf  Hf0  1  0.99064275  0.98480635  0.00000000  1
  Hf  Hf1  1  0.01519365  0.00935725  0.50000000  1
  Hf  Hf2  1  0.00575320  0.50601778  0.50000000  1
  Hf  Hf3  1  0.49398222  0.99424680  0.00000000  1
  C  C4  1  0.18270965  0.34948827  0.22823601  1
  C  C5  1  0.18270965  0.34948827  0.77176399  1
  C  C6  1  0.17016295  0.82983705  0.25000000  1
  C  C7  1  0.17016295  0.82983705  0.75000000  1
  C  C8  1  0.66046045  0.33953955  0.25000000  1
  C  C9  1  0.66046045  0.33953955  0.75000000  1
  C  C10  1  0.65051173  0.81729035  0.27176399  1
  C  C11  1  0.65051173  0.81729035  0.72823601  1
  Mo  Mo12  1  0.00269270  0.49849871  0.00000000  1
  Mo  Mo13  1  0.50150129  0.99730730  0.50000000  1
  Mo  Mo14  1  0.49525479  0.49937681  0.00000000  1
  Mo  Mo15  1  0.50062319  0.50474521  0.50000000  1
