# generated using pymatgen
data_TaMo3C4
_symmetry_space_group_name_H-M   'P 1'
_cell_length_a   5.89830692
_cell_length_b   5.89830692
_cell_length_c   5.68882053
_cell_angle_alpha   90.00000000
_cell_angle_beta   90.00000000
_cell_angle_gamma   120.00000001
_symmetry_Int_Tables_number   1
_chemical_formula_structural   TaMo3C4
_chemical_formula_sum   'Ta2 Mo6 C8'
_cell_volume   171.39872987
_cell_formula_units_Z   2
loop_
 _symmetry_equiv_pos_site_id
 _symmetry_equiv_pos_as_xyz
  1  'x, y, z'
loop_
 _atom_site_type_symbol
 _atom_site_label
 _atom_site_symmetry_multiplicity
 _atom_site_fract_x
 _atom_site_fract_y
 _atom_site_fract_z
 _atom_site_occupancy
  Mo  Mo0  1  0.00078894  0.00039447  0.00000000  1
  Mo  Mo1  1  0.00078894  0.00039447  0.50000000  1
  Mo  Mo2  1  0.49960553  0.00039447  0.00000000  1
  Mo  Mo3  1  0.49960553  0.00039447  0.50000000  1
  Mo  Mo4  1  0.49960553  0.49921106  0.00000000  1
  Mo  Mo5  1  0.49960553  0.49921106  0.50000000  1
  C  C6  1  0.17008304  0.32991696  0.25000000  1
  C  C7  1  0.17008304  0.32991696  0.75000000  1
  C  C8  1  0.17008304  0.84016608  0.25000000  1
  C  C9  1  0.17008304  0.84016608  0.75000000  1
  C  C10  1  0.65983392  0.32991696  0.25000000  1
  C  C11  1  0.65983392  0.32991696  0.75000000  1
  C  C12  1  0.66666667  0.83333333  0.25000000  1
  C  C13  1  0.66666667  0.83333333  0.75000000  1
  Ta  Ta14  1  0.00000000  0.50000000  0.00000000  1
  Ta  Ta15  1  0.00000000  0.50000000  0.50000000  1
