# generated using pymatgen
data_Hf3WC4
_symmetry_space_group_name_H-M   'P 1'
_cell_length_a   6.29080462
_cell_length_b   6.29080462
_cell_length_c   5.79508488
_cell_angle_alpha   90.00000000
_cell_angle_beta   90.00000000
_cell_angle_gamma   120.22206407
_symmetry_Int_Tables_number   1
_chemical_formula_structural   Hf3WC4
_chemical_formula_sum   'Hf6 W2 C8'
_cell_volume   198.16486961
_cell_formula_units_Z   2
loop_
 _symmetry_equiv_pos_site_id
 _symmetry_equiv_pos_as_xyz
  1  'x, y, z'
loop_
 _atom_site_type_symbol
 _atom_site_label
 _atom_site_symmetry_multiplicity
 _atom_site_fract_x
 _atom_site_fract_y
 _atom_site_fract_z
 _atom_site_occupancy
  W  W0  1  0.00291441  0.99708559  0.00000000  1
  W  W1  1  0.50291441  0.49708559  0.00000000  1
  C  C2  1  0.17426876  0.32573124  0.22918450  1
  C  C3  1  0.17426876  0.32573124  0.77081550  1
  C  C4  1  0.16096312  0.83903688  0.25058075  1
  C  C5  1  0.16096312  0.83903688  0.74941925  1
  C  C6  1  0.66096312  0.33903688  0.25058075  1
  C  C7  1  0.66096312  0.33903688  0.74941925  1
  C  C8  1  0.67426876  0.82573124  0.22918450  1
  C  C9  1  0.67426876  0.82573124  0.77081550  1
  Hf  Hf10  1  0.99960267  0.00039733  0.50000000  1
  Hf  Hf11  1  0.99571706  0.50428294  0.00000000  1
  Hf  Hf12  1  0.99796877  0.50203123  0.50000000  1
  Hf  Hf13  1  0.49571706  0.00428294  0.00000000  1
  Hf  Hf14  1  0.49796877  0.00203123  0.50000000  1
  Hf  Hf15  1  0.49960267  0.50039733  0.50000000  1
