# generated using pymatgen
data_Ta3MoC4
_symmetry_space_group_name_H-M   'P 1'
_cell_length_a   6.03585483
_cell_length_b   6.03585483
_cell_length_c   5.73922370
_cell_angle_alpha   90.00000000
_cell_angle_beta   90.00000000
_cell_angle_gamma   119.99817713
_symmetry_Int_Tables_number   1
_chemical_formula_structural   Ta3MoC4
_chemical_formula_sum   'Ta6 Mo2 C8'
_cell_volume   181.07951946
_cell_formula_units_Z   2
loop_
 _symmetry_equiv_pos_site_id
 _symmetry_equiv_pos_as_xyz
  1  'x, y, z'
loop_
 _atom_site_type_symbol
 _atom_site_label
 _atom_site_symmetry_multiplicity
 _atom_site_fract_x
 _atom_site_fract_y
 _atom_site_fract_z
 _atom_site_occupancy
  Ta  Ta0  1  0.00081871  0.99918129  0.00000000  1
  Ta  Ta1  1  0.99863173  0.00136827  0.50000000  1
  Ta  Ta2  1  0.00072295  0.49927705  0.00000000  1
  Ta  Ta3  1  0.50072295  0.99927705  0.00000000  1
  Ta  Ta4  1  0.50081871  0.49918129  0.00000000  1
  Ta  Ta5  1  0.49863173  0.50136827  0.50000000  1
  C  C6  1  0.16467846  0.33532154  0.24863401  1
  C  C7  1  0.16467846  0.33532154  0.75136599  1
  C  C8  1  0.16866634  0.83133366  0.26015294  1
  C  C9  1  0.16866634  0.83133366  0.73984706  1
  C  C10  1  0.66866634  0.33133366  0.26015294  1
  C  C11  1  0.66866634  0.33133366  0.73984706  1
  C  C12  1  0.66467846  0.83532154  0.24863401  1
  C  C13  1  0.66467846  0.83532154  0.75136599  1
  Mo  Mo14  1  0.99980371  0.50019629  0.50000000  1
  Mo  Mo15  1  0.49980371  0.00019629  0.50000000  1
