# generated using pymatgen
data_TaMoC2
_symmetry_space_group_name_H-M   'P 1'
_cell_length_a   5.96791979
_cell_length_b   5.96791979
_cell_length_c   5.71959741
_cell_angle_alpha   90.00000000
_cell_angle_beta   90.00000000
_cell_angle_gamma   120.17587089
_symmetry_Int_Tables_number   1
_chemical_formula_structural   TaMoC2
_chemical_formula_sum   'Ta4 Mo4 C8'
_cell_volume   176.10417953
_cell_formula_units_Z   4
loop_
 _symmetry_equiv_pos_site_id
 _symmetry_equiv_pos_as_xyz
  1  'x, y, z'
loop_
 _atom_site_type_symbol
 _atom_site_label
 _atom_site_symmetry_multiplicity
 _atom_site_fract_x
 _atom_site_fract_y
 _atom_site_fract_z
 _atom_site_occupancy
  Mo  Mo0  1  0.99824922  0.99936405  0.00000000  1
  Mo  Mo1  1  0.00067601  0.49932399  0.00000000  1
  Mo  Mo2  1  0.99825563  0.50174437  0.50000000  1
  Mo  Mo3  1  0.50063595  0.50175078  0.00000000  1
  C  C4  1  0.16531780  0.33468220  0.23934069  1
  C  C5  1  0.16531780  0.33468220  0.76065931  1
  C  C6  1  0.16124127  0.82813320  0.24929491  1
  C  C7  1  0.16124127  0.82813320  0.75070509  1
  C  C8  1  0.67186680  0.33875873  0.24929491  1
  C  C9  1  0.67186680  0.33875873  0.75070509  1
  C  C10  1  0.66857741  0.83142259  0.24163303  1
  C  C11  1  0.66857741  0.83142259  0.75836697  1
  Ta  Ta12  1  0.99947291  0.99881627  0.50000000  1
  Ta  Ta13  1  0.50060328  0.99939672  0.00000000  1
  Ta  Ta14  1  0.50025005  0.99974995  0.50000000  1
  Ta  Ta15  1  0.50118373  0.50052709  0.50000000  1
