# generated using pymatgen
data_TaWC2
_symmetry_space_group_name_H-M   'P 1'
_cell_length_a   5.96335284
_cell_length_b   5.96986743
_cell_length_c   5.73792223
_cell_angle_alpha   90.00000000
_cell_angle_beta   90.00000000
_cell_angle_gamma   119.96390848
_symmetry_Int_Tables_number   1
_chemical_formula_structural   TaWC2
_chemical_formula_sum   'Ta4 W4 C8'
_cell_volume   176.96945479
_cell_formula_units_Z   4
loop_
 _symmetry_equiv_pos_site_id
 _symmetry_equiv_pos_as_xyz
  1  'x, y, z'
loop_
 _atom_site_type_symbol
 _atom_site_label
 _atom_site_symmetry_multiplicity
 _atom_site_fract_x
 _atom_site_fract_y
 _atom_site_fract_z
 _atom_site_occupancy
  Ta  Ta0  1  0.99875148  0.99967105  0.00000000  1
  Ta  Ta1  1  0.50091957  0.99967105  0.00000000  1
  Ta  Ta2  1  0.50092954  0.50185908  0.00000000  1
  Ta  Ta3  1  0.50013719  0.50027438  0.50000000  1
  C  C4  1  0.16038599  0.33317024  0.25011929  1
  C  C5  1  0.16038599  0.33317024  0.74988071  1
  C  C6  1  0.16498151  0.82996301  0.26014770  1
  C  C7  1  0.16498151  0.82996301  0.73985230  1
  C  C8  1  0.67278427  0.33317024  0.25011929  1
  C  C9  1  0.67278427  0.33317024  0.74988071  1
  C  C10  1  0.66886940  0.83773879  0.25874126  1
  C  C11  1  0.66886940  0.83773879  0.74125874  1
  W  W12  1  0.99830837  0.99957670  0.50000000  1
  W  W13  1  0.99878505  0.49757009  0.00000000  1
  W  W14  1  0.00019151  0.50038302  0.50000000  1
  W  W15  1  0.50126833  0.99957670  0.50000000  1
