# generated using pymatgen
data_HfWC2
_symmetry_space_group_name_H-M   'P 1'
_cell_length_a   6.12321526
_cell_length_b   6.12076461
_cell_length_c   5.77300187
_cell_angle_alpha   90.00000000
_cell_angle_beta   90.00000000
_cell_angle_gamma   120.01324546
_symmetry_Int_Tables_number   1
_chemical_formula_structural   HfWC2
_chemical_formula_sum   'Hf4 W4 C8'
_cell_volume   187.35252651
_cell_formula_units_Z   4
loop_
 _symmetry_equiv_pos_site_id
 _symmetry_equiv_pos_as_xyz
  1  'x, y, z'
loop_
 _atom_site_type_symbol
 _atom_site_label
 _atom_site_symmetry_multiplicity
 _atom_site_fract_x
 _atom_site_fract_y
 _atom_site_fract_z
 _atom_site_occupancy
  W  W0  1  0.99221585  0.99844588  0.00000000  1
  W  W1  1  0.00097179  0.50194359  0.00000000  1
  W  W2  1  0.99671903  0.49343806  0.50000000  1
  W  W3  1  0.50623003  0.99844588  0.00000000  1
  C  C4  1  0.14963292  0.33457672  0.25258279  1
  C  C5  1  0.14963292  0.33457672  0.74741721  1
  C  C6  1  0.16253198  0.82506394  0.22914688  1
  C  C7  1  0.16253198  0.82506394  0.77085312  1
  C  C8  1  0.68494381  0.33457672  0.25258279  1
  C  C9  1  0.68494381  0.33457672  0.74741721  1
  C  C10  1  0.67261449  0.84522897  0.22954799  1
  C  C11  1  0.67261449  0.84522897  0.77045201  1
  Hf  Hf12  1  0.99859352  0.99717152  0.50000000  1
  Hf  Hf13  1  0.49857800  0.99717152  0.50000000  1
  Hf  Hf14  1  0.49326156  0.48652313  0.00000000  1
  Hf  Hf15  1  0.50731718  0.51463435  0.50000000  1
