# generated using pymatgen
data_Ta3WC4
_symmetry_space_group_name_H-M   'P 1'
_cell_length_a   6.03798039
_cell_length_b   6.03798039
_cell_length_c   5.74629846
_cell_angle_alpha   90.00000000
_cell_angle_beta   90.00000000
_cell_angle_gamma   120.04637943
_symmetry_Int_Tables_number   1
_chemical_formula_structural   Ta3WC4
_chemical_formula_sum   'Ta6 W2 C8'
_cell_volume   181.34227100
_cell_formula_units_Z   2
loop_
 _symmetry_equiv_pos_site_id
 _symmetry_equiv_pos_as_xyz
  1  'x, y, z'
loop_
 _atom_site_type_symbol
 _atom_site_label
 _atom_site_symmetry_multiplicity
 _atom_site_fract_x
 _atom_site_fract_y
 _atom_site_fract_z
 _atom_site_occupancy
  Ta  Ta0  1  0.99829291  0.00170709  0.00000000  1
  Ta  Ta1  1  0.00083041  0.99916959  0.50000000  1
  Ta  Ta2  1  0.00034792  0.49965208  0.50000000  1
  Ta  Ta3  1  0.50034792  0.99965208  0.50000000  1
  Ta  Ta4  1  0.49829291  0.50170709  0.00000000  1
  Ta  Ta5  1  0.50083041  0.49916959  0.50000000  1
  C  C6  1  0.16428490  0.33571510  0.25152492  1
  C  C7  1  0.16428490  0.33571510  0.74847508  1
  C  C8  1  0.16901201  0.83098799  0.23940735  1
  C  C9  1  0.16901201  0.83098799  0.76059265  1
  C  C10  1  0.66901201  0.33098799  0.23940735  1
  C  C11  1  0.66901201  0.33098799  0.76059265  1
  C  C12  1  0.66428490  0.83571510  0.25152492  1
  C  C13  1  0.66428490  0.83571510  0.74847508  1
  W  W14  1  0.00060161  0.49939839  0.00000000  1
  W  W15  1  0.50060161  0.99939839  0.00000000  1
