# generated using pymatgen
data_MnFeCoNiAu
_symmetry_space_group_name_H-M   'P 1'
_cell_length_a   5.74363381
_cell_length_b   5.71762697
_cell_length_c   7.36312435
_cell_angle_alpha   89.98933676
_cell_angle_beta   89.91651085
_cell_angle_gamma   89.56206007
_symmetry_Int_Tables_number   1
_chemical_formula_structural   MnFeCoNiAu
_chemical_formula_sum   'Mn4 Fe4 Co4 Ni4 Au4'
_cell_volume   241.79735270
_cell_formula_units_Z   4
loop_
 _symmetry_equiv_pos_site_id
 _symmetry_equiv_pos_as_xyz
  1  'x, y, z'
loop_
 _atom_site_type_symbol
 _atom_site_label
 _atom_site_symmetry_multiplicity
 _atom_site_fract_x
 _atom_site_fract_y
 _atom_site_fract_z
 _atom_site_occupancy
  Au  Au0  1  0.07946298  0.28616236  0.74427708  1
  Au  Au1  1  0.20103346  0.62409946  0.99289087  1
  Au  Au2  1  0.29803703  0.90620691  0.27171660  1
  Au  Au3  1  0.41231457  0.18728356  0.99629854  1
  Co  Co4  1  0.30592898  0.88843599  0.71617622  1
  Co  Co5  1  0.52740713  0.50981397  0.73920844  1
  Co  Co6  1  0.61040379  0.78355763  0.50358201  1
  Co  Co7  1  0.88029645  0.70209657  0.25736458  1
  Mn  Mn8  1  0.94453384  0.00934172  0.01002011  1
  Mn  Mn9  1  0.22059886  0.58681350  0.51095596  1
  Mn  Mn10  1  0.41326794  0.22908825  0.50412229  1
  Mn  Mn11  1  0.89065567  0.71333217  0.73102939  1
  Fe  Fe12  1  0.71737407  0.10392717  0.26376446  1
  Fe  Fe13  1  0.78301570  0.40530066  0.49232106  1
  Fe  Fe14  1  0.64570377  0.77982716  0.98842680  1
  Fe  Fe15  1  0.80373782  0.40118109  0.02209293  1
  Ni  Ni16  1  0.98052324  0.99070556  0.49885711  1
  Ni  Ni17  1  0.08850267  0.31399190  0.26626833  1
  Ni  Ni18  1  0.68603255  0.08284133  0.73340523  1
  Ni  Ni19  1  0.51116945  0.49599305  0.25722194  1
