# generated using pymatgen
data_AlFeCoNiW
_symmetry_space_group_name_H-M   'P 1'
_cell_length_a   5.73567088
_cell_length_b   5.84319322
_cell_length_c   7.49324406
_cell_angle_alpha   90.20555422
_cell_angle_beta   89.21805160
_cell_angle_gamma   89.54347763
_symmetry_Int_Tables_number   1
_chemical_formula_structural   AlFeCoNiW
_chemical_formula_sum   'Al4 Fe4 Co4 Ni4 W4'
_cell_volume   251.10025210
_cell_formula_units_Z   4
loop_
 _symmetry_equiv_pos_site_id
 _symmetry_equiv_pos_as_xyz
  1  'x, y, z'
loop_
 _atom_site_type_symbol
 _atom_site_label
 _atom_site_symmetry_multiplicity
 _atom_site_fract_x
 _atom_site_fract_y
 _atom_site_fract_z
 _atom_site_occupancy
  Al  Al0  1  0.07575898  0.28267815  0.74211524  1
  Al  Al1  1  0.20520228  0.59078242  0.00314130  1
  Al  Al2  1  0.30853235  0.89993898  0.24779869  1
  Al  Al3  1  0.43748885  0.19798459  0.99619514  1
  Co  Co4  1  0.29628139  0.89820405  0.75189448  1
  Co  Co5  1  0.49062006  0.49622061  0.74625004  1
  Co  Co6  1  0.60072067  0.79837166  0.49419575  1
  Co  Co7  1  0.89942691  0.70027537  0.25272135  1
  W  W8  1  0.97960231  0.00389513  0.01083267  1
  W  W9  1  0.20107156  0.60792839  0.50588265  1
  W  W10  1  0.41718864  0.19250545  0.50418398  1
  W  W11  1  0.86460104  0.70621343  0.74603136  1
  Fe  Fe12  1  0.70849106  0.09796772  0.26239459  1
  Fe  Fe13  1  0.79591268  0.40434805  0.48761833  1
  Fe  Fe14  1  0.59509367  0.79501296  0.00311640  1
  Fe  Fe15  1  0.81023753  0.41510490  0.00718199  1
  Ni  Ni16  1  0.00260523  0.00405951  0.49325098  1
  Ni  Ni17  1  0.10667357  0.30326013  0.24850458  1
  Ni  Ni18  1  0.69370666  0.10557206  0.74726915  1
  Ni  Ni19  1  0.51078457  0.49967646  0.24942133  1
