# generated using pymatgen
data_YMnFeCoNi
_symmetry_space_group_name_H-M   'P 1'
_cell_length_a   5.84558290
_cell_length_b   5.50460835
_cell_length_c   9.36355890
_cell_angle_alpha   90.43756342
_cell_angle_beta   79.74257655
_cell_angle_gamma   93.77719441
_symmetry_Int_Tables_number   1
_chemical_formula_structural   YMnFeCoNi
_chemical_formula_sum   'Y4 Mn4 Fe4 Co4 Ni4'
_cell_volume   295.83522747
_cell_formula_units_Z   4
loop_
 _symmetry_equiv_pos_site_id
 _symmetry_equiv_pos_as_xyz
  1  'x, y, z'
loop_
 _atom_site_type_symbol
 _atom_site_label
 _atom_site_symmetry_multiplicity
 _atom_site_fract_x
 _atom_site_fract_y
 _atom_site_fract_z
 _atom_site_occupancy
  Y  Y0  1  0.99321362  0.25107503  0.77129288  1
  Y  Y1  1  0.21844024  0.75963815  0.91381946  1
  Y  Y2  1  0.35727712  0.86058287  0.26342394  1
  Y  Y3  1  0.46478754  0.29036498  0.00155025  1
  Co  Co4  1  0.24957430  0.81442928  0.62223672  1
  Co  Co5  1  0.49163714  0.48176403  0.69547568  1
  Co  Co6  1  0.62663640  0.77607045  0.49910178  1
  Co  Co7  1  0.88518432  0.71134775  0.28743506  1
  Mn  Mn8  1  0.88615941  0.05581599  0.09098731  1
  Mn  Mn9  1  0.19293168  0.47608152  0.49909054  1
  Mn  Mn10  1  0.42315064  0.18330766  0.52314012  1
  Mn  Mn11  1  0.84742009  0.72973363  0.69247579  1
  Fe  Fe12  1  0.76549437  0.10116284  0.32659205  1
  Fe  Fe13  1  0.80858547  0.41984000  0.48886366  1
  Fe  Fe14  1  0.72426112  0.77621878  0.94946633  1
  Fe  Fe15  1  0.85078555  0.48550322  0.09287159  1
  Ni  Ni16  1  0.00700996  0.02951482  0.49148581  1
  Ni  Ni17  1  0.12052013  0.34419132  0.26117540  1
  Ni  Ni18  1  0.56043641  0.03392294  0.72544368  1
  Ni  Ni19  1  0.52649443  0.41943477  0.30407194  1
