# generated using pymatgen
data_Ta3CrC4
_symmetry_space_group_name_H-M   'P 1'
_cell_length_a   8.80896816
_cell_length_b   4.41484877
_cell_length_c   4.41621574
_cell_angle_alpha   90.00000000
_cell_angle_beta   90.00000000
_cell_angle_gamma   90.00000000
_symmetry_Int_Tables_number   1
_chemical_formula_structural   Ta3CrC4
_chemical_formula_sum   'Ta6 Cr2 C8'
_cell_volume   171.74778826
_cell_formula_units_Z   2
loop_
 _symmetry_equiv_pos_site_id
 _symmetry_equiv_pos_as_xyz
  1  'x, y, z'
loop_
 _atom_site_type_symbol
 _atom_site_label
 _atom_site_symmetry_multiplicity
 _atom_site_fract_x
 _atom_site_fract_y
 _atom_site_fract_z
 _atom_site_occupancy
  Cr  Cr0  1  0.01802667  0.00000000  0.00000000  1
  Cr  Cr1  1  0.23197333  0.50000000  0.00000000  1
  Ta  Ta2  1  0.00502506  0.50000000  0.50000000  1
  Ta  Ta3  1  0.24497494  0.00000000  0.50000000  1
  Ta  Ta4  1  0.48860204  0.00000000  0.00000000  1
  Ta  Ta5  1  0.49440250  0.50000000  0.50000000  1
  Ta  Ta6  1  0.75559750  0.00000000  0.50000000  1
  Ta  Ta7  1  0.76139796  0.50000000  0.00000000  1
  C  C8  1  0.24930803  0.50000000  0.50000000  1
  C  C9  1  0.24306804  0.00000000  0.00000000  1
  C  C10  1  0.00693196  0.50000000  0.00000000  1
  C  C11  1  0.00069197  0.00000000  0.50000000  1
  C  C12  1  0.75162876  0.50000000  0.50000000  1
  C  C13  1  0.75194486  0.00000000  0.00000000  1
  C  C14  1  0.49805514  0.50000000  0.00000000  1
  C  C15  1  0.49837124  0.00000000  0.50000000  1
