# generated using pymatgen
data_ZrMoC2
_symmetry_space_group_name_H-M   'P 1'
_cell_length_a   6.15888127
_cell_length_b   6.15653340
_cell_length_c   5.78153446
_cell_angle_alpha   90.00000000
_cell_angle_beta   90.00000000
_cell_angle_gamma   119.98739020
_symmetry_Int_Tables_number   1
_chemical_formula_structural   ZrMoC2
_chemical_formula_sum   'Zr4 Mo4 C8'
_cell_volume   189.87465238
_cell_formula_units_Z   4
loop_
 _symmetry_equiv_pos_site_id
 _symmetry_equiv_pos_as_xyz
  1  'x, y, z'
loop_
 _atom_site_type_symbol
 _atom_site_label
 _atom_site_symmetry_multiplicity
 _atom_site_fract_x
 _atom_site_fract_y
 _atom_site_fract_z
 _atom_site_occupancy
  Zr  Zr0  1  0.00334721  0.00045384  0.00000000  1
  Zr  Zr1  1  0.00334721  0.50289337  0.00000000  1
  Zr  Zr2  1  0.48593914  0.49296957  0.00000000  1
  Zr  Zr3  1  0.51405870  0.50702935  0.50000000  1
  C  C4  1  0.15158519  0.32579259  0.27328660  1
  C  C5  1  0.15158519  0.32579259  0.72671340  1
  C  C6  1  0.17587631  0.83793815  0.27566686  1
  C  C7  1  0.17587631  0.83793815  0.72433314  1
  C  C8  1  0.66557865  0.31147961  0.24821737  1
  C  C9  1  0.66557865  0.31147961  0.75178263  1
  C  C10  1  0.66557865  0.85409902  0.24821737  1
  C  C11  1  0.66557865  0.85409902  0.75178263  1
  Mo  Mo12  1  0.00139649  0.00901807  0.50000000  1
  Mo  Mo13  1  0.00139649  0.49237842  0.50000000  1
  Mo  Mo14  1  0.50862088  0.00431044  0.00000000  1
  Mo  Mo15  1  0.49798966  0.99899483  0.50000000  1
