# generated using pymatgen
data_HfW3C4
_symmetry_space_group_name_H-M   'P 1'
_cell_length_a   5.97976521
_cell_length_b   5.95131836
_cell_length_c   5.75012794
_cell_angle_alpha   90.00000000
_cell_angle_beta   90.00000000
_cell_angle_gamma   119.84275797
_symmetry_Int_Tables_number   1
_chemical_formula_structural   HfW3C4
_chemical_formula_sum   'Hf2 W6 C8'
_cell_volume   177.49715859
_cell_formula_units_Z   2
loop_
 _symmetry_equiv_pos_site_id
 _symmetry_equiv_pos_as_xyz
  1  'x, y, z'
loop_
 _atom_site_type_symbol
 _atom_site_label
 _atom_site_symmetry_multiplicity
 _atom_site_fract_x
 _atom_site_fract_y
 _atom_site_fract_z
 _atom_site_occupancy
  W  W0  1  0.99783246  0.99891623  0.00000000  1
  W  W1  1  0.99816035  0.99908018  0.50000000  1
  W  W2  1  0.99783246  0.49891623  0.00000000  1
  W  W3  1  0.99816035  0.49908018  0.50000000  1
  W  W4  1  0.50085957  0.00042978  0.00000000  1
  W  W5  1  0.50085957  0.50042978  0.00000000  1
  C  C6  1  0.15736147  0.32868073  0.24904801  1
  C  C7  1  0.15736147  0.32868073  0.75095199  1
  C  C8  1  0.15736147  0.82868073  0.24904801  1
  C  C9  1  0.15736147  0.82868073  0.75095199  1
  C  C10  1  0.67534790  0.33767394  0.23112565  1
  C  C11  1  0.67534790  0.33767394  0.76887435  1
  C  C12  1  0.67534790  0.83767394  0.23112565  1
  C  C13  1  0.67534790  0.83767394  0.76887435  1
  Hf  Hf14  1  0.50439557  0.00219778  0.50000000  1
  Hf  Hf15  1  0.50439557  0.50219778  0.50000000  1
