# generated using pymatgen
data_TaW3C4
_symmetry_space_group_name_H-M   'P 1'
_cell_length_a   5.90018364
_cell_length_b   5.90986690
_cell_length_c   5.72780347
_cell_angle_alpha   90.00000000
_cell_angle_beta   90.00000000
_cell_angle_gamma   120.05430467
_symmetry_Int_Tables_number   1
_chemical_formula_structural   TaW3C4
_chemical_formula_sum   'Ta2 W6 C8'
_cell_volume   172.87176204
_cell_formula_units_Z   2
loop_
 _symmetry_equiv_pos_site_id
 _symmetry_equiv_pos_as_xyz
  1  'x, y, z'
loop_
 _atom_site_type_symbol
 _atom_site_label
 _atom_site_symmetry_multiplicity
 _atom_site_fract_x
 _atom_site_fract_y
 _atom_site_fract_z
 _atom_site_occupancy
  W  W0  1  0.99966609  0.99983305  0.00000000  1
  W  W1  1  0.99966609  0.49983305  0.50000000  1
  W  W2  1  0.49949001  0.99819874  0.00000000  1
  W  W3  1  0.49949001  0.00129127  0.50000000  1
  W  W4  1  0.49949001  0.50129127  0.00000000  1
  W  W5  1  0.49949001  0.49819874  0.50000000  1
  C  C6  1  0.17095506  0.33547752  0.25000000  1
  C  C7  1  0.17095506  0.33547752  0.75000000  1
  C  C8  1  0.17095506  0.83547752  0.25000000  1
  C  C9  1  0.17095506  0.83547752  0.75000000  1
  C  C10  1  0.66278892  0.33139445  0.25764827  1
  C  C11  1  0.66278892  0.33139445  0.74235173  1
  C  C12  1  0.66278892  0.83139445  0.24235173  1
  C  C13  1  0.66278892  0.83139445  0.75764827  1
  Ta  Ta14  1  0.00053261  0.00026630  0.50000000  1
  Ta  Ta15  1  0.00053261  0.50026630  0.00000000  1
