# generated using pymatgen
data_TaC
_symmetry_space_group_name_H-M   'P 1'
_cell_length_a   6.28436901
_cell_length_b   3.14288402
_cell_length_c   10.72996556
_cell_angle_alpha   90.00000000
_cell_angle_beta   90.00000000
_cell_angle_gamma   120.00736437
_symmetry_Int_Tables_number   1
_chemical_formula_structural   TaC
_chemical_formula_sum   'Ta8 C8'
_cell_volume   183.52141962
_cell_formula_units_Z   8
loop_
 _symmetry_equiv_pos_site_id
 _symmetry_equiv_pos_as_xyz
  1  'x, y, z'
loop_
 _atom_site_type_symbol
 _atom_site_label
 _atom_site_symmetry_multiplicity
 _atom_site_fract_x
 _atom_site_fract_y
 _atom_site_fract_z
 _atom_site_occupancy
  Ta  Ta0  1  0.16660969  0.66660969  0.38440839  1
  Ta  Ta1  1  0.33339031  0.33339031  0.88440839  1
  Ta  Ta2  1  0.33339031  0.33339031  0.61559161  1
  Ta  Ta3  1  0.16660969  0.66660969  0.11559161  1
  Ta  Ta4  1  0.66660969  0.66660969  0.38440839  1
  Ta  Ta5  1  0.83339031  0.33339031  0.88440839  1
  Ta  Ta6  1  0.83339031  0.33339031  0.61559161  1
  Ta  Ta7  1  0.66660969  0.66660969  0.11559161  1
  C  C8  1  0.00000000  0.00000000  0.00000000  1
  C  C9  1  0.00000000  0.00000000  0.50000000  1
  C  C10  1  0.16667760  0.66667760  0.75000000  1
  C  C11  1  0.33332240  0.33332240  0.25000000  1
  C  C12  1  0.50000000  0.00000000  0.00000000  1
  C  C13  1  0.50000000  0.00000000  0.50000000  1
  C  C14  1  0.66667760  0.66667760  0.75000000  1
  C  C15  1  0.83332240  0.33332240  0.25000000  1
