# generated using pymatgen
data_MoC
_symmetry_space_group_name_H-M   'P 1'
_cell_length_a   6.05249410
_cell_length_b   3.02664284
_cell_length_c   10.61674187
_cell_angle_alpha   90.00000000
_cell_angle_beta   90.00000000
_cell_angle_gamma   120.00432625
_symmetry_Int_Tables_number   1
_chemical_formula_structural   MoC
_chemical_formula_sum   'Mo8 C8'
_cell_volume   168.42187764
_cell_formula_units_Z   8
loop_
 _symmetry_equiv_pos_site_id
 _symmetry_equiv_pos_as_xyz
  1  'x, y, z'
loop_
 _atom_site_type_symbol
 _atom_site_label
 _atom_site_symmetry_multiplicity
 _atom_site_fract_x
 _atom_site_fract_y
 _atom_site_fract_z
 _atom_site_occupancy
  Mo  Mo0  1  0.16779694  0.66779694  0.38080374  1
  Mo  Mo1  1  0.33220306  0.33220306  0.88080374  1
  Mo  Mo2  1  0.33220306  0.33220306  0.61919626  1
  Mo  Mo3  1  0.16779694  0.66779694  0.11919626  1
  Mo  Mo4  1  0.66779694  0.66779694  0.38080374  1
  Mo  Mo5  1  0.83220306  0.33220306  0.88080374  1
  Mo  Mo6  1  0.83220306  0.33220306  0.61919626  1
  Mo  Mo7  1  0.66779694  0.66779694  0.11919626  1
  C  C8  1  0.00000000  0.00000000  0.00000000  1
  C  C9  1  0.00000000  0.00000000  0.50000000  1
  C  C10  1  0.16653571  0.66653571  0.75000000  1
  C  C11  1  0.33346429  0.33346429  0.25000000  1
  C  C12  1  0.50000000  0.00000000  0.00000000  1
  C  C13  1  0.50000000  0.00000000  0.50000000  1
  C  C14  1  0.66653571  0.66653571  0.75000000  1
  C  C15  1  0.83346429  0.33346429  0.25000000  1
