# generated using pymatgen
data_Hf3MoC4
_symmetry_space_group_name_H-M   'P 1'
_cell_length_a   6.40830848
_cell_length_b   3.20623145
_cell_length_c   10.99174527
_cell_angle_alpha   90.00000000
_cell_angle_beta   90.00000000
_cell_angle_gamma   120.02144740
_symmetry_Int_Tables_number   1
_chemical_formula_structural   Hf3MoC4
_chemical_formula_sum   'Hf6 Mo2 C8'
_cell_volume   195.54272655
_cell_formula_units_Z   2
loop_
 _symmetry_equiv_pos_site_id
 _symmetry_equiv_pos_as_xyz
  1  'x, y, z'
loop_
 _atom_site_type_symbol
 _atom_site_label
 _atom_site_symmetry_multiplicity
 _atom_site_fract_x
 _atom_site_fract_y
 _atom_site_fract_z
 _atom_site_occupancy
  Hf  Hf0  1  0.16783903  0.66783903  0.37599948  1
  Hf  Hf1  1  0.33216097  0.33216097  0.87599948  1
  Hf  Hf2  1  0.67064834  0.67064834  0.38834844  1
  Hf  Hf3  1  0.82935166  0.32935166  0.88834844  1
  Hf  Hf4  1  0.83247753  0.33247753  0.62441966  1
  Hf  Hf5  1  0.66752247  0.66752247  0.12441966  1
  Mo  Mo6  1  0.32914681  0.32914681  0.61347099  1
  Mo  Mo7  1  0.17085319  0.67085319  0.11347099  1
  C  C8  1  0.00654379  0.00654379  0.00347958  1
  C  C9  1  0.00719467  0.00719467  0.50247694  1
  C  C10  1  0.17593931  0.67593931  0.74147200  1
  C  C11  1  0.32406069  0.32406069  0.24147200  1
  C  C12  1  0.49280533  0.99280533  0.00247694  1
  C  C13  1  0.49345621  0.99345621  0.50347958  1
  C  C14  1  0.66326291  0.66326291  0.75033291  1
  C  C15  1  0.83673709  0.33673709  0.25033291  1
