# generated using pymatgen
data_HfC
_symmetry_space_group_name_H-M   'P 1'
_cell_length_a   6.53995179
_cell_length_b   3.27031176
_cell_length_c   11.17349173
_cell_angle_alpha   90.00000000
_cell_angle_beta   90.00000000
_cell_angle_gamma   120.00339774
_symmetry_Int_Tables_number   1
_chemical_formula_structural   HfC
_chemical_formula_sum   'Hf8 C8'
_cell_volume   206.95140359
_cell_formula_units_Z   8
loop_
 _symmetry_equiv_pos_site_id
 _symmetry_equiv_pos_as_xyz
  1  'x, y, z'
loop_
 _atom_site_type_symbol
 _atom_site_label
 _atom_site_symmetry_multiplicity
 _atom_site_fract_x
 _atom_site_fract_y
 _atom_site_fract_z
 _atom_site_occupancy
  Hf  Hf0  1  0.16666228  0.66666228  0.38034940  1
  Hf  Hf1  1  0.33333772  0.33333772  0.88034940  1
  Hf  Hf2  1  0.33333772  0.33333772  0.61965060  1
  Hf  Hf3  1  0.16666228  0.66666228  0.11965060  1
  Hf  Hf4  1  0.66666228  0.66666228  0.38034940  1
  Hf  Hf5  1  0.83333772  0.33333772  0.88034940  1
  Hf  Hf6  1  0.83333772  0.33333772  0.61965060  1
  Hf  Hf7  1  0.66666228  0.66666228  0.11965060  1
  C  C8  1  0.00000000  0.00000000  0.00000000  1
  C  C9  1  0.00000000  0.00000000  0.50000000  1
  C  C10  1  0.16665396  0.66665396  0.75000000  1
  C  C11  1  0.33334604  0.33334604  0.25000000  1
  C  C12  1  0.50000000  0.00000000  0.00000000  1
  C  C13  1  0.50000000  0.00000000  0.50000000  1
  C  C14  1  0.66665396  0.66665396  0.75000000  1
  C  C15  1  0.83334604  0.33334604  0.25000000  1
