# generated using pymatgen
data_TaMo3C4
_symmetry_space_group_name_H-M   'P 1'
_cell_length_a   6.15055589
_cell_length_b   3.07713585
_cell_length_c   10.52914516
_cell_angle_alpha   90.00000000
_cell_angle_beta   90.00000000
_cell_angle_gamma   120.01998686
_symmetry_Int_Tables_number   1
_chemical_formula_structural   TaMo3C4
_chemical_formula_sum   'Ta2 Mo6 C8'
_cell_volume   172.54297511
_cell_formula_units_Z   2
loop_
 _symmetry_equiv_pos_site_id
 _symmetry_equiv_pos_as_xyz
  1  'x, y, z'
loop_
 _atom_site_type_symbol
 _atom_site_label
 _atom_site_symmetry_multiplicity
 _atom_site_fract_x
 _atom_site_fract_y
 _atom_site_fract_z
 _atom_site_occupancy
  Mo  Mo0  1  0.16677461  0.66677461  0.38679172  1
  Mo  Mo1  1  0.33032928  0.33032928  0.87997296  1
  Mo  Mo2  1  0.33273187  0.33273187  0.61780050  1
  Mo  Mo3  1  0.66967072  0.66967072  0.37997296  1
  Mo  Mo4  1  0.83322539  0.33322539  0.88679172  1
  Mo  Mo5  1  0.66726813  0.66726813  0.11780050  1
  Ta  Ta6  1  0.16883525  0.66883525  0.11792112  1
  Ta  Ta7  1  0.83116475  0.33116475  0.61792112  1
  C  C8  1  0.99998705  0.99998705  0.99979031  1
  C  C9  1  0.00001295  0.00001295  0.49979031  1
  C  C10  1  0.17083268  0.67083268  0.74953973  1
  C  C11  1  0.33435943  0.33435943  0.25080557  1
  C  C12  1  0.50131065  0.00131065  0.99737809  1
  C  C13  1  0.49868935  0.99868935  0.49737809  1
  C  C14  1  0.66564057  0.66564057  0.75080557  1
  C  C15  1  0.82916732  0.32916732  0.24953973  1
