# generated using pymatgen
data_Ta3MoC4
_symmetry_space_group_name_H-M   'P 1'
_cell_length_a   6.26748735
_cell_length_b   3.13499720
_cell_length_c   10.59350082
_cell_angle_alpha   90.00000002
_cell_angle_beta   90.04009244
_cell_angle_gamma   120.01323295
_symmetry_Int_Tables_number   1
_chemical_formula_structural   Ta3MoC4
_chemical_formula_sum   'Ta6 Mo2 C8'
_cell_volume   180.23647803
_cell_formula_units_Z   2
loop_
 _symmetry_equiv_pos_site_id
 _symmetry_equiv_pos_as_xyz
  1  'x, y, z'
loop_
 _atom_site_type_symbol
 _atom_site_label
 _atom_site_symmetry_multiplicity
 _atom_site_fract_x
 _atom_site_fract_y
 _atom_site_fract_z
 _atom_site_occupancy
  Ta  Ta0  1  0.16638255  0.66638255  0.38105465  1
  Ta  Ta1  1  0.33361745  0.33361745  0.61894535  1
  Ta  Ta2  1  0.66692471  0.66692471  0.38413305  1
  Ta  Ta3  1  0.83528576  0.33528576  0.88436389  1
  Ta  Ta4  1  0.83307529  0.33307529  0.61586695  1
  Ta  Ta5  1  0.66471424  0.66471424  0.11563611  1
  Mo  Mo6  1  0.33009178  0.33009178  0.89154294  1
  Mo  Mo7  1  0.16990822  0.66990822  0.10845706  1
  C  C8  1  0.99775359  0.99775359  0.00032754  1
  C  C9  1  0.00128414  0.00128414  0.49986147  1
  C  C10  1  0.16762910  0.66762910  0.75268647  1
  C  C11  1  0.33237090  0.33237090  0.24731353  1
  C  C12  1  0.50224641  0.00224641  0.99967246  1
  C  C13  1  0.49871586  0.99871586  0.50013853  1
  C  C14  1  0.66723826  0.66723826  0.75234411  1
  C  C15  1  0.83276174  0.33276174  0.24765589  1
