# generated using pymatgen
data_Zr3MoC4
_symmetry_space_group_name_H-M   'P 1'
_cell_length_a   6.48935290
_cell_length_b   3.22983538
_cell_length_c   11.09482550
_cell_angle_alpha   90.00000000
_cell_angle_beta   89.57938121
_cell_angle_gamma   119.84880913
_symmetry_Int_Tables_number   1
_chemical_formula_structural   Zr3MoC4
_chemical_formula_sum   'Zr6 Mo2 C8'
_cell_volume   201.68656305
_cell_formula_units_Z   2
loop_
 _symmetry_equiv_pos_site_id
 _symmetry_equiv_pos_as_xyz
  1  'x, y, z'
loop_
 _atom_site_type_symbol
 _atom_site_label
 _atom_site_symmetry_multiplicity
 _atom_site_fract_x
 _atom_site_fract_y
 _atom_site_fract_z
 _atom_site_occupancy
  Zr  Zr0  1  0.17077162  0.67077162  0.38101264  1
  Zr  Zr1  1  0.33540791  0.33540791  0.88407623  1
  Zr  Zr2  1  0.32922838  0.32922838  0.61898736  1
  Zr  Zr3  1  0.16459209  0.66459209  0.11592377  1
  Zr  Zr4  1  0.66866439  0.66866439  0.37383282  1
  Zr  Zr5  1  0.83133561  0.33133561  0.62616718  1
  C  C6  1  0.98782354  0.98782354  0.99835160  1
  C  C7  1  0.99972991  0.99972991  0.50027344  1
  C  C8  1  0.15568689  0.65568689  0.75629901  1
  C  C9  1  0.34431311  0.34431311  0.24370099  1
  C  C10  1  0.51217646  0.01217646  0.00164840  1
  C  C11  1  0.50027009  0.00027009  0.49972656  1
  C  C12  1  0.68055051  0.68055051  0.76545834  1
  C  C13  1  0.81944949  0.31944949  0.23454166  1
  Mo  Mo14  1  0.83120354  0.33120354  0.89011268  1
  Mo  Mo15  1  0.66879646  0.66879646  0.10988732  1
