# generated using pymatgen
data_HfMoC2
_symmetry_space_group_name_H-M   'P 1'
_cell_length_a   6.31421551
_cell_length_b   3.15363973
_cell_length_c   10.76315786
_cell_angle_alpha   89.99999999
_cell_angle_beta   90.03332513
_cell_angle_gamma   119.96366906
_symmetry_Int_Tables_number   1
_chemical_formula_structural   HfMoC2
_chemical_formula_sum   'Hf4 Mo4 C8'
_cell_volume   185.67806365
_cell_formula_units_Z   4
loop_
 _symmetry_equiv_pos_site_id
 _symmetry_equiv_pos_as_xyz
  1  'x, y, z'
loop_
 _atom_site_type_symbol
 _atom_site_label
 _atom_site_symmetry_multiplicity
 _atom_site_fract_x
 _atom_site_fract_y
 _atom_site_fract_z
 _atom_site_occupancy
  Hf  Hf0  1  0.16479406  0.66479406  0.37875129  1
  Hf  Hf1  1  0.33388611  0.33388611  0.61808970  1
  Hf  Hf2  1  0.16562701  0.66562701  0.11288360  1
  Hf  Hf3  1  0.83173894  0.33173894  0.62047270  1
  Mo  Mo4  1  0.33989360  0.33989360  0.88790099  1
  Mo  Mo5  1  0.66086108  0.66086108  0.37759393  1
  Mo  Mo6  1  0.82724644  0.32724644  0.89026076  1
  Mo  Mo7  1  0.66316364  0.66316364  0.10751616  1
  C  C8  1  0.99780422  0.99780422  0.99574342  1
  C  C9  1  0.99555872  0.99555872  0.49854065  1
  C  C10  1  0.16946295  0.66946295  0.76263526  1
  C  C11  1  0.35354168  0.35354168  0.24595838  1
  C  C12  1  0.50184152  0.00184152  0.99885112  1
  C  C13  1  0.50509497  0.00509497  0.49649995  1
  C  C14  1  0.66587082  0.66587082  0.76202452  1
  C  C15  1  0.82361424  0.32361424  0.24627756  1
