# generated using pymatgen
data_ZrMoC2
_symmetry_space_group_name_H-M   'P 1'
_cell_length_a   6.34875507
_cell_length_b   3.16951006
_cell_length_c   10.86465789
_cell_angle_alpha   89.99999998
_cell_angle_beta   89.86881215
_cell_angle_gamma   119.94928963
_symmetry_Int_Tables_number   1
_chemical_formula_structural   ZrMoC2
_chemical_formula_sum   'Zr4 Mo4 C8'
_cell_volume   189.42948216
_cell_formula_units_Z   4
loop_
 _symmetry_equiv_pos_site_id
 _symmetry_equiv_pos_as_xyz
  1  'x, y, z'
loop_
 _atom_site_type_symbol
 _atom_site_label
 _atom_site_symmetry_multiplicity
 _atom_site_fract_x
 _atom_site_fract_y
 _atom_site_fract_z
 _atom_site_occupancy
  Zr  Zr0  1  0.17056085  0.67056085  0.37625722  1
  Zr  Zr1  1  0.67261117  0.67261117  0.38773508  1
  Zr  Zr2  1  0.83461078  0.33461078  0.62877734  1
  Zr  Zr3  1  0.66510935  0.66510935  0.11380347  1
  Mo  Mo4  1  0.32458878  0.32458878  0.88433818  1
  Mo  Mo5  1  0.33244644  0.33244644  0.62062857  1
  Mo  Mo6  1  0.16545735  0.66545735  0.10336605  1
  Mo  Mo7  1  0.84163025  0.34163025  0.89102885  1
  C  C8  1  0.00029450  0.00029450  0.99439057  1
  C  C9  1  0.01051078  0.01051078  0.50600895  1
  C  C10  1  0.17764726  0.67764726  0.75609711  1
  C  C11  1  0.31784312  0.31784312  0.23331680  1
  C  C12  1  0.49562123  0.99562123  0.98959159  1
  C  C13  1  0.49369906  0.99369906  0.50892585  1
  C  C14  1  0.65629385  0.65629385  0.76251906  1
  C  C15  1  0.84107523  0.34107523  0.24321530  1
