# generated using pymatgen
data_ZrScTaTiMoC5
_symmetry_space_group_name_H-M   'P 1'
_cell_length_a   7.09931670
_cell_length_b   7.10950710
_cell_length_c   4.50489164
_cell_angle_alpha   90.00000000
_cell_angle_beta   90.00000000
_cell_angle_gamma   90.00785909
_symmetry_Int_Tables_number   1
_chemical_formula_structural   ZrScTaTiMoC5
_chemical_formula_sum   'Zr2 Sc2 Ta2 Ti2 Mo2 C10'
_cell_volume   227.37378294
_cell_formula_units_Z   2
loop_
 _symmetry_equiv_pos_site_id
 _symmetry_equiv_pos_as_xyz
  1  'x, y, z'
loop_
 _atom_site_type_symbol
 _atom_site_label
 _atom_site_symmetry_multiplicity
 _atom_site_fract_x
 _atom_site_fract_y
 _atom_site_fract_z
 _atom_site_occupancy
  C  C0  1  0.29590155  0.90106379  0.00000000  1
  C  C1  1  0.49437082  0.49257775  0.00000000  1
  C  C2  1  0.39484516  0.19375358  0.50000000  1
  C  C3  1  0.10442283  0.30507747  0.00000000  1
  C  C4  1  0.00410091  0.00941495  0.50000000  1
  C  C5  1  0.69680587  0.10568266  0.00000000  1
  C  C6  1  0.59486299  0.81021617  0.50000000  1
  C  C7  1  0.20026029  0.59884765  0.50000000  1
  C  C8  1  0.90761567  0.68670731  0.00000000  1
  C  C9  1  0.80679634  0.39066897  0.50000000  1
  Mo  Mo10  1  0.29092305  0.90998562  0.50000000  1
  Mo  Mo11  1  0.38575198  0.20333970  0.00000000  1
  Ti  Ti12  1  0.19870658  0.60334288  0.00000000  1
  Ti  Ti13  1  0.10454039  0.30445733  0.50000000  1
  Ta  Ta14  1  0.70810441  0.09659121  0.50000000  1
  Ta  Ta15  1  0.81164100  0.39680482  0.00000000  1
  Zr  Zr16  1  0.49779317  0.49523235  0.50000000  1
  Zr  Zr17  1  0.59779527  0.79928160  0.00000000  1
  Sc  Sc18  1  0.90373398  0.69816903  0.50000000  1
  Sc  Sc19  1  0.00102777  0.99878516  0.00000000  1
