# generated using pymatgen
data_ZrTaTiVMoC5
_symmetry_space_group_name_H-M   'P 1'
_cell_length_a   7.01326877
_cell_length_b   6.98484276
_cell_length_c   4.41581527
_cell_angle_alpha   90.00000000
_cell_angle_beta   90.00000000
_cell_angle_gamma   90.17321468
_symmetry_Int_Tables_number   1
_chemical_formula_structural   ZrTaTiVMoC5
_chemical_formula_sum   'Zr2 Ta2 Ti2 V2 Mo2 C10'
_cell_volume   216.31469765
_cell_formula_units_Z   2
loop_
 _symmetry_equiv_pos_site_id
 _symmetry_equiv_pos_as_xyz
  1  'x, y, z'
loop_
 _atom_site_type_symbol
 _atom_site_label
 _atom_site_symmetry_multiplicity
 _atom_site_fract_x
 _atom_site_fract_y
 _atom_site_fract_z
 _atom_site_occupancy
  C  C0  1  0.28462502  0.89721835  0.00000000  1
  C  C1  1  0.49645587  0.49240794  0.00000000  1
  C  C2  1  0.39529764  0.19119816  0.50000000  1
  C  C3  1  0.10055245  0.29774711  0.00000000  1
  C  C4  1  0.00175594  0.99963295  0.50000000  1
  C  C5  1  0.70754837  0.10548733  0.00000000  1
  C  C6  1  0.60748481  0.80856564  0.50000000  1
  C  C7  1  0.18575270  0.59943823  0.50000000  1
  C  C8  1  0.91111587  0.70569326  0.00000000  1
  C  C9  1  0.81061189  0.40325562  0.50000000  1
  Mo  Mo10  1  0.28183911  0.90104264  0.50000000  1
  Mo  Mo11  1  0.37736429  0.19780656  0.00000000  1
  Ti  Ti12  1  0.19627809  0.60392311  0.00000000  1
  Ti  Ti13  1  0.10131173  0.30000030  0.50000000  1
  Ta  Ta14  1  0.71348644  0.09724290  0.50000000  1
  Ta  Ta15  1  0.81381692  0.40145622  0.00000000  1
  Zr  Zr16  1  0.49526236  0.49773283  0.50000000  1
  Zr  Zr17  1  0.59949360  0.80367923  0.00000000  1
  V  V18  1  0.91247508  0.70344221  0.50000000  1
  V  V19  1  0.00747183  0.99302939  0.00000000  1
