# generated using pymatgen
data_ZrTaTiCrMoC5
_symmetry_space_group_name_H-M   'P 1'
_cell_length_a   7.00249861
_cell_length_b   6.95683010
_cell_length_c   4.41828277
_cell_angle_alpha   90.00000000
_cell_angle_beta   90.00000000
_cell_angle_gamma   90.40132987
_symmetry_Int_Tables_number   1
_chemical_formula_structural   ZrTaTiCrMoC5
_chemical_formula_sum   'Zr2 Ta2 Ti2 Cr2 Mo2 C10'
_cell_volume   215.23221828
_cell_formula_units_Z   2
loop_
 _symmetry_equiv_pos_site_id
 _symmetry_equiv_pos_as_xyz
  1  'x, y, z'
loop_
 _atom_site_type_symbol
 _atom_site_label
 _atom_site_symmetry_multiplicity
 _atom_site_fract_x
 _atom_site_fract_y
 _atom_site_fract_z
 _atom_site_occupancy
  C  C0  1  0.28304165  0.89714495  0.00000000  1
  C  C1  1  0.49718155  0.49233773  0.00000000  1
  C  C2  1  0.39317871  0.19119762  0.50000000  1
  C  C3  1  0.10071962  0.29825850  0.00000000  1
  C  C4  1  0.00180029  0.99813349  0.50000000  1
  C  C5  1  0.70937884  0.10610882  0.00000000  1
  C  C6  1  0.60661005  0.81059026  0.50000000  1
  C  C7  1  0.18617356  0.59939057  0.50000000  1
  C  C8  1  0.91225304  0.70867511  0.00000000  1
  C  C9  1  0.81131608  0.40470924  0.50000000  1
  Mo  Mo10  1  0.27598282  0.90247805  0.50000000  1
  Mo  Mo11  1  0.37292575  0.19811348  0.00000000  1
  Ti  Ti12  1  0.19672024  0.60742589  0.00000000  1
  Ti  Ti13  1  0.10115271  0.30311524  0.50000000  1
  Ta  Ta14  1  0.71542507  0.09600187  0.50000000  1
  Ta  Ta15  1  0.81482638  0.40478555  0.00000000  1
  Zr  Zr16  1  0.49501708  0.49824991  0.50000000  1
  Zr  Zr17  1  0.60055845  0.80439259  0.00000000  1
  Cr  Cr18  1  0.91886816  0.70332586  0.50000000  1
  Cr  Cr19  1  0.00686994  0.97556528  0.00000000  1
