# generated using pymatgen
data_ZrTaTiMnMoC5
_symmetry_space_group_name_H-M   'P 1'
_cell_length_a   6.98573965
_cell_length_b   6.95479246
_cell_length_c   4.41559525
_cell_angle_alpha   90.00000000
_cell_angle_beta   90.00000000
_cell_angle_gamma   90.28530305
_symmetry_Int_Tables_number   1
_chemical_formula_structural   ZrTaTiMnMoC5
_chemical_formula_sum   'Zr2 Ta2 Ti2 Mn2 Mo2 C10'
_cell_volume   214.52625139
_cell_formula_units_Z   2
loop_
 _symmetry_equiv_pos_site_id
 _symmetry_equiv_pos_as_xyz
  1  'x, y, z'
loop_
 _atom_site_type_symbol
 _atom_site_label
 _atom_site_symmetry_multiplicity
 _atom_site_fract_x
 _atom_site_fract_y
 _atom_site_fract_z
 _atom_site_occupancy
  C  C0  1  0.28309457  0.89983638  0.00000000  1
  C  C1  1  0.49683669  0.49389113  0.00000000  1
  C  C2  1  0.39145489  0.19025975  0.50000000  1
  C  C3  1  0.10088411  0.30058692  0.00000000  1
  C  C4  1  0.00293814  0.99467043  0.50000000  1
  C  C5  1  0.71064418  0.10657643  0.00000000  1
  C  C6  1  0.61243238  0.80728645  0.50000000  1
  C  C7  1  0.18419725  0.60150401  0.50000000  1
  C  C8  1  0.91594890  0.71636769  0.00000000  1
  C  C9  1  0.80988395  0.40149509  0.50000000  1
  Mo  Mo10  1  0.27225182  0.90485711  0.50000000  1
  Mo  Mo11  1  0.37135685  0.19706548  0.00000000  1
  Ti  Ti12  1  0.19313616  0.61065103  0.00000000  1
  Ti  Ti13  1  0.10106302  0.30544345  0.50000000  1
  Ta  Ta14  1  0.71782076  0.09875509  0.50000000  1
  Ta  Ta15  1  0.81354403  0.39980168  0.00000000  1
  Zr  Zr16  1  0.49415303  0.49881032  0.50000000  1
  Zr  Zr17  1  0.60801928  0.80419347  0.00000000  1
  Mn  Mn18  1  0.90815604  0.67106017  0.50000000  1
  Mn  Mn19  1  0.01218398  0.99688792  0.00000000  1
