# generated using pymatgen
data_ZrTaTiFeMoC5
_symmetry_space_group_name_H-M   'P 1'
_cell_length_a   6.99677877
_cell_length_b   6.94943209
_cell_length_c   4.43026600
_cell_angle_alpha   90.00000000
_cell_angle_beta   90.00000000
_cell_angle_gamma   90.16462841
_symmetry_Int_Tables_number   1
_chemical_formula_structural   ZrTaTiFeMoC5
_chemical_formula_sum   'Zr2 Ta2 Ti2 Fe2 Mo2 C10'
_cell_volume   215.41476494
_cell_formula_units_Z   2
loop_
 _symmetry_equiv_pos_site_id
 _symmetry_equiv_pos_as_xyz
  1  'x, y, z'
loop_
 _atom_site_type_symbol
 _atom_site_label
 _atom_site_symmetry_multiplicity
 _atom_site_fract_x
 _atom_site_fract_y
 _atom_site_fract_z
 _atom_site_occupancy
  C  C0  1  0.28215672  0.90215539  0.00000000  1
  C  C1  1  0.49571126  0.49402105  0.00000000  1
  C  C2  1  0.39082032  0.19269476  0.50000000  1
  C  C3  1  0.10129580  0.30091995  0.00000000  1
  C  C4  1  0.00235931  0.99495148  0.50000000  1
  C  C5  1  0.71641839  0.10534820  0.00000000  1
  C  C6  1  0.61146694  0.80964031  0.50000000  1
  C  C7  1  0.18598825  0.60335767  0.50000000  1
  C  C8  1  0.91367758  0.70951109  0.00000000  1
  C  C9  1  0.81035208  0.40164676  0.50000000  1
  Mo  Mo10  1  0.26956939  0.90904568  0.50000000  1
  Mo  Mo11  1  0.36962312  0.20416421  0.00000000  1
  Ti  Ti12  1  0.19675935  0.61431590  0.00000000  1
  Ti  Ti13  1  0.10220334  0.31214349  0.50000000  1
  Ta  Ta14  1  0.71912192  0.09780444  0.50000000  1
  Ta  Ta15  1  0.81592675  0.40499199  0.00000000  1
  Zr  Zr16  1  0.49492011  0.50049760  0.50000000  1
  Zr  Zr17  1  0.60674420  0.80539535  0.00000000  1
  Fe  Fe18  1  0.90970436  0.66758576  0.50000000  1
  Fe  Fe19  1  0.00518080  0.96980891  0.00000000  1
