# generated using pymatgen
data_ZrTaTiCoMoC5
_symmetry_space_group_name_H-M   'P 1'
_cell_length_a   6.98922903
_cell_length_b   6.94988332
_cell_length_c   4.45549085
_cell_angle_alpha   90.00000000
_cell_angle_beta   90.00000000
_cell_angle_gamma   90.36999995
_symmetry_Int_Tables_number   1
_chemical_formula_structural   ZrTaTiCoMoC5
_chemical_formula_sum   'Zr2 Ta2 Ti2 Co2 Mo2 C10'
_cell_volume   216.41795361
_cell_formula_units_Z   2
loop_
 _symmetry_equiv_pos_site_id
 _symmetry_equiv_pos_as_xyz
  1  'x, y, z'
loop_
 _atom_site_type_symbol
 _atom_site_label
 _atom_site_symmetry_multiplicity
 _atom_site_fract_x
 _atom_site_fract_y
 _atom_site_fract_z
 _atom_site_occupancy
  C  C0  1  0.28270649  0.90221876  0.00000000  1
  C  C1  1  0.49670646  0.49562062  0.00000000  1
  C  C2  1  0.38875445  0.19298296  0.50000000  1
  C  C3  1  0.10132297  0.30001323  0.00000000  1
  C  C4  1  0.99987503  0.99102534  0.50000000  1
  C  C5  1  0.71591217  0.10564216  0.00000000  1
  C  C6  1  0.61401942  0.80896862  0.50000000  1
  C  C7  1  0.18739726  0.60325202  0.50000000  1
  C  C8  1  0.91454406  0.70646085  0.00000000  1
  C  C9  1  0.80970081  0.39986926  0.50000000  1
  Mo  Mo10  1  0.26567504  0.90998103  0.50000000  1
  Mo  Mo11  1  0.36921874  0.20360142  0.00000000  1
  Ti  Ti12  1  0.19804861  0.61528262  0.00000000  1
  Ti  Ti13  1  0.10314935  0.31531177  0.50000000  1
  Ta  Ta14  1  0.71673777  0.09589136  0.50000000  1
  Ta  Ta15  1  0.81538915  0.40445105  0.00000000  1
  Zr  Zr16  1  0.49816399  0.50055918  0.50000000  1
  Zr  Zr17  1  0.60899696  0.80487903  0.00000000  1
  Co  Co18  1  0.90733074  0.67121937  0.50000000  1
  Co  Co19  1  0.00635053  0.97276938  0.00000000  1
