# generated using pymatgen
data_ZrTaTiZnMoC5
_symmetry_space_group_name_H-M   'P 1'
_cell_length_a   7.06414011
_cell_length_b   7.15578623
_cell_length_c   4.46215450
_cell_angle_alpha   90.00000000
_cell_angle_beta   90.00000000
_cell_angle_gamma   89.53202891
_symmetry_Int_Tables_number   1
_chemical_formula_structural   ZrTaTiZnMoC5
_chemical_formula_sum   'Zr2 Ta2 Ti2 Zn2 Mo2 C10'
_cell_volume   225.55205065
_cell_formula_units_Z   2
loop_
 _symmetry_equiv_pos_site_id
 _symmetry_equiv_pos_as_xyz
  1  'x, y, z'
loop_
 _atom_site_type_symbol
 _atom_site_label
 _atom_site_symmetry_multiplicity
 _atom_site_fract_x
 _atom_site_fract_y
 _atom_site_fract_z
 _atom_site_occupancy
  C  C0  1  0.29669488  0.90831698  0.00000000  1
  C  C1  1  0.50091264  0.49982843  0.00000000  1
  C  C2  1  0.39193953  0.19727349  0.50000000  1
  C  C3  1  0.10882632  0.31363321  0.00000000  1
  C  C4  1  0.00846983  0.01561514  0.50000000  1
  C  C5  1  0.70225297  0.10317768  0.00000000  1
  C  C6  1  0.60046220  0.81447617  0.50000000  1
  C  C7  1  0.19951582  0.60380373  0.50000000  1
  C  C8  1  0.90862875  0.68007855  0.00000000  1
  C  C9  1  0.80733701  0.38116623  0.50000000  1
  Mo  Mo10  1  0.26242238  0.92722614  0.50000000  1
  Mo  Mo11  1  0.38032096  0.19845259  0.00000000  1
  Ti  Ti12  1  0.20049017  0.61413154  0.00000000  1
  Ti  Ti13  1  0.10847325  0.31845197  0.50000000  1
  Ta  Ta14  1  0.69677057  0.09455966  0.50000000  1
  Ta  Ta15  1  0.81473824  0.39273428  0.00000000  1
  Zr  Zr16  1  0.50145719  0.49940948  0.50000000  1
  Zr  Zr17  1  0.61568289  0.79730054  0.00000000  1
  Zn  Zn18  1  0.90220967  0.67455050  0.50000000  1
  Zn  Zn19  1  0.99239473  0.96581369  0.00000000  1
