# generated using pymatgen
data_YZrTaTiMoC5
_symmetry_space_group_name_H-M   'P 1'
_cell_length_a   7.20840710
_cell_length_b   7.25278208
_cell_length_c   4.57951687
_cell_angle_alpha   90.00000000
_cell_angle_beta   90.00000000
_cell_angle_gamma   90.12027310
_symmetry_Int_Tables_number   1
_chemical_formula_structural   YZrTaTiMoC5
_chemical_formula_sum   'Y2 Zr2 Ta2 Ti2 Mo2 C10'
_cell_volume   239.42122071
_cell_formula_units_Z   2
loop_
 _symmetry_equiv_pos_site_id
 _symmetry_equiv_pos_as_xyz
  1  'x, y, z'
loop_
 _atom_site_type_symbol
 _atom_site_label
 _atom_site_symmetry_multiplicity
 _atom_site_fract_x
 _atom_site_fract_y
 _atom_site_fract_z
 _atom_site_occupancy
  C  C0  1  0.30441564  0.90127024  0.00000000  1
  C  C1  1  0.49536539  0.49176893  0.00000000  1
  C  C2  1  0.39582112  0.19482574  0.50000000  1
  C  C3  1  0.10599353  0.31210159  0.00000000  1
  C  C4  1  0.00588408  0.02342680  0.50000000  1
  C  C5  1  0.68680416  0.10681593  0.00000000  1
  C  C6  1  0.58586505  0.81307581  0.50000000  1
  C  C7  1  0.20849130  0.59393804  0.50000000  1
  C  C8  1  0.90502416  0.67306464  0.00000000  1
  C  C9  1  0.80224554  0.38406779  0.50000000  1
  Mo  Mo10  1  0.30170235  0.91564344  0.50000000  1
  Mo  Mo11  1  0.39415633  0.20537971  0.00000000  1
  Ti  Ti12  1  0.20254689  0.59310226  0.00000000  1
  Ti  Ti13  1  0.10633586  0.30276929  0.50000000  1
  Ta  Ta14  1  0.69839724  0.10133546  0.50000000  1
  Ta  Ta15  1  0.80850457  0.39604154  0.00000000  1
  Zr  Zr16  1  0.49665455  0.49360522  0.50000000  1
  Zr  Zr17  1  0.59148241  0.79815815  0.00000000  1
  Y  Y18  1  0.90341727  0.69916471  0.50000000  1
  Y  Y19  1  0.00089258  0.00044472  0.00000000  1
