# generated using pymatgen
data_ZrTaTiTcMoC5
_symmetry_space_group_name_H-M   'P 1'
_cell_length_a   7.02657395
_cell_length_b   7.05023229
_cell_length_c   4.43546593
_cell_angle_alpha   90.00000000
_cell_angle_beta   90.00000000
_cell_angle_gamma   90.28124189
_symmetry_Int_Tables_number   1
_chemical_formula_structural   ZrTaTiTcMoC5
_chemical_formula_sum   'Zr2 Ta2 Ti2 Tc2 Mo2 C10'
_cell_volume   219.72580432
_cell_formula_units_Z   2
loop_
 _symmetry_equiv_pos_site_id
 _symmetry_equiv_pos_as_xyz
  1  'x, y, z'
loop_
 _atom_site_type_symbol
 _atom_site_label
 _atom_site_symmetry_multiplicity
 _atom_site_fract_x
 _atom_site_fract_y
 _atom_site_fract_z
 _atom_site_occupancy
  C  C0  1  0.29029332  0.89714196  0.00000000  1
  C  C1  1  0.49953252  0.49359344  0.00000000  1
  C  C2  1  0.39211025  0.18952038  0.50000000  1
  C  C3  1  0.10276802  0.30991330  0.00000000  1
  C  C4  1  0.00343175  0.99890521  0.50000000  1
  C  C5  1  0.70135186  0.10717938  0.00000000  1
  C  C6  1  0.60269175  0.80925024  0.50000000  1
  C  C7  1  0.19092055  0.59911687  0.50000000  1
  C  C8  1  0.91467684  0.71319373  0.00000000  1
  C  C9  1  0.80671574  0.39254392  0.50000000  1
  Mo  Mo10  1  0.28030678  0.90372120  0.50000000  1
  Mo  Mo11  1  0.37521277  0.19616697  0.00000000  1
  Ti  Ti12  1  0.19384129  0.60584842  0.00000000  1
  Ti  Ti13  1  0.10140262  0.30330405  0.50000000  1
  Ta  Ta14  1  0.71198678  0.09985618  0.50000000  1
  Ta  Ta15  1  0.81074947  0.39609575  0.00000000  1
  Zr  Zr16  1  0.49366544  0.49709172  0.50000000  1
  Zr  Zr17  1  0.60679757  0.80230792  0.00000000  1
  Tc  Tc18  1  0.90516611  0.67220802  0.50000000  1
  Tc  Tc19  1  0.01637857  0.01304138  0.00000000  1
