# generated using pymatgen
data_ZrTaTiMoRuC5
_symmetry_space_group_name_H-M   'P 1'
_cell_length_a   7.03659368
_cell_length_b   7.02901756
_cell_length_c   4.45500735
_cell_angle_alpha   90.00000000
_cell_angle_beta   90.00000000
_cell_angle_gamma   90.52142268
_symmetry_Int_Tables_number   1
_chemical_formula_structural   ZrTaTiMoRuC5
_chemical_formula_sum   'Zr2 Ta2 Ti2 Mo2 Ru2 C10'
_cell_volume   220.33705615
_cell_formula_units_Z   2
loop_
 _symmetry_equiv_pos_site_id
 _symmetry_equiv_pos_as_xyz
  1  'x, y, z'
loop_
 _atom_site_type_symbol
 _atom_site_label
 _atom_site_symmetry_multiplicity
 _atom_site_fract_x
 _atom_site_fract_y
 _atom_site_fract_z
 _atom_site_occupancy
  C  C0  1  0.29195632  0.89900609  0.00000000  1
  C  C1  1  0.50196090  0.49349839  0.00000000  1
  C  C2  1  0.38860082  0.19071652  0.50000000  1
  C  C3  1  0.10317618  0.31136441  0.00000000  1
  C  C4  1  0.00076700  0.99394458  0.50000000  1
  C  C5  1  0.70251981  0.10752818  0.00000000  1
  C  C6  1  0.60236094  0.80978875  0.50000000  1
  C  C7  1  0.19410884  0.60046664  0.50000000  1
  C  C8  1  0.91637578  0.71201022  0.00000000  1
  C  C9  1  0.80675327  0.38911449  0.50000000  1
  Mo  Mo10  1  0.27215716  0.90636413  0.50000000  1
  Mo  Mo11  1  0.36927755  0.19674324  0.00000000  1
  Ti  Ti12  1  0.19519614  0.61496971  0.00000000  1
  Ti  Ti13  1  0.10150690  0.30799423  0.50000000  1
  Ta  Ta14  1  0.71287230  0.09628584  0.50000000  1
  Ta  Ta15  1  0.81273898  0.39621227  0.00000000  1
  Zr  Zr16  1  0.49518329  0.49786250  0.50000000  1
  Zr  Zr17  1  0.61224900  0.80136089  0.00000000  1
  Ru  Ru18  1  0.90735365  0.66811967  0.50000000  1
  Ru  Ru19  1  0.01288517  0.00664927  0.00000000  1
