# generated using pymatgen
data_ZrTaTiMoRhC5
_symmetry_space_group_name_H-M   'P 1'
_cell_length_a   7.05369088
_cell_length_b   7.02456785
_cell_length_c   4.48695935
_cell_angle_alpha   90.00000000
_cell_angle_beta   90.00000000
_cell_angle_gamma   90.40284182
_symmetry_Int_Tables_number   1
_chemical_formula_structural   ZrTaTiMoRhC5
_chemical_formula_sum   'Zr2 Ta2 Ti2 Mo2 Rh2 C10'
_cell_volume   222.31943794
_cell_formula_units_Z   2
loop_
 _symmetry_equiv_pos_site_id
 _symmetry_equiv_pos_as_xyz
  1  'x, y, z'
loop_
 _atom_site_type_symbol
 _atom_site_label
 _atom_site_symmetry_multiplicity
 _atom_site_fract_x
 _atom_site_fract_y
 _atom_site_fract_z
 _atom_site_occupancy
  C  C0  1  0.29314772  0.90121808  0.00000000  1
  C  C1  1  0.50094093  0.49373445  0.00000000  1
  C  C2  1  0.38689562  0.19259625  0.50000000  1
  C  C3  1  0.10365491  0.30830350  0.00000000  1
  C  C4  1  0.00088303  0.99406768  0.50000000  1
  C  C5  1  0.70368335  0.10682203  0.00000000  1
  C  C6  1  0.60368304  0.80997051  0.50000000  1
  C  C7  1  0.19553415  0.60188558  0.50000000  1
  C  C8  1  0.91490805  0.70200541  0.00000000  1
  C  C9  1  0.80698295  0.38703835  0.50000000  1
  Mo  Mo10  1  0.27074256  0.91231484  0.50000000  1
  Mo  Mo11  1  0.36960829  0.20339763  0.00000000  1
  Ti  Ti12  1  0.19789215  0.61741420  0.00000000  1
  Ti  Ti13  1  0.10394098  0.31623179  0.50000000  1
  Ta  Ta14  1  0.71532386  0.09227194  0.50000000  1
  Ta  Ta15  1  0.81377329  0.39682961  0.00000000  1
  Zr  Zr16  1  0.49846829  0.49797730  0.50000000  1
  Zr  Zr17  1  0.61201316  0.80063019  0.00000000  1
  Rh  Rh18  1  0.90075650  0.67172973  0.50000000  1
  Rh  Rh19  1  0.00716718  0.99356092  0.00000000  1
