# generated using pymatgen
data_ZrTaTiMoPdC5
_symmetry_space_group_name_H-M   'P 1'
_cell_length_a   7.08283635
_cell_length_b   7.10249473
_cell_length_c   4.49499745
_cell_angle_alpha   90.00000000
_cell_angle_beta   90.00000000
_cell_angle_gamma   89.26916719
_symmetry_Int_Tables_number   1
_chemical_formula_structural   ZrTaTiMoPdC5
_chemical_formula_sum   'Zr2 Ta2 Ti2 Mo2 Pd2 C10'
_cell_volume   226.10608303
_cell_formula_units_Z   2
loop_
 _symmetry_equiv_pos_site_id
 _symmetry_equiv_pos_as_xyz
  1  'x, y, z'
loop_
 _atom_site_type_symbol
 _atom_site_label
 _atom_site_symmetry_multiplicity
 _atom_site_fract_x
 _atom_site_fract_y
 _atom_site_fract_z
 _atom_site_occupancy
  C  C0  1  0.29295920  0.90505782  0.00000000  1
  C  C1  1  0.50232684  0.49416016  0.00000000  1
  C  C2  1  0.38952341  0.19638971  0.50000000  1
  C  C3  1  0.10557566  0.31111063  0.00000000  1
  C  C4  1  0.00572053  0.99377433  0.50000000  1
  C  C5  1  0.70042823  0.10205350  0.00000000  1
  C  C6  1  0.60199535  0.80852165  0.50000000  1
  C  C7  1  0.19556702  0.60346938  0.50000000  1
  C  C8  1  0.91306656  0.68980888  0.00000000  1
  C  C9  1  0.80543341  0.37844816  0.50000000  1
  Mo  Mo10  1  0.27529477  0.92683983  0.50000000  1
  Mo  Mo11  1  0.37336321  0.21202386  0.00000000  1
  Ti  Ti12  1  0.19775408  0.61961052  0.00000000  1
  Ti  Ti13  1  0.10539820  0.32376738  0.50000000  1
  Ta  Ta14  1  0.71548984  0.08400111  0.50000000  1
  Ta  Ta15  1  0.81138388  0.38237565  0.00000000  1
  Zr  Zr16  1  0.50028461  0.49646649  0.50000000  1
  Zr  Zr17  1  0.61247210  0.79565401  0.00000000  1
  Pd  Pd18  1  0.89496604  0.68154256  0.50000000  1
  Pd  Pd19  1  0.00099707  0.99492436  0.00000000  1
