# generated using pymatgen
data_ZrTaTiAgMoC5
_symmetry_space_group_name_H-M   'P 1'
_cell_length_a   7.11289474
_cell_length_b   7.25685410
_cell_length_c   4.49021938
_cell_angle_alpha   90.00000000
_cell_angle_beta   90.00000000
_cell_angle_gamma   88.40259140
_symmetry_Int_Tables_number   1
_chemical_formula_structural   ZrTaTiAgMoC5
_chemical_formula_sum   'Zr2 Ta2 Ti2 Ag2 Mo2 C10'
_cell_volume   231.68265630
_cell_formula_units_Z   2
loop_
 _symmetry_equiv_pos_site_id
 _symmetry_equiv_pos_as_xyz
  1  'x, y, z'
loop_
 _atom_site_type_symbol
 _atom_site_label
 _atom_site_symmetry_multiplicity
 _atom_site_fract_x
 _atom_site_fract_y
 _atom_site_fract_z
 _atom_site_occupancy
  C  C0  1  0.29978051  0.90470646  0.00000000  1
  C  C1  1  0.50233776  0.49241405  0.00000000  1
  C  C2  1  0.39260877  0.20100650  0.50000000  1
  C  C3  1  0.10874442  0.31658421  0.00000000  1
  C  C4  1  0.01353230  0.01904850  0.50000000  1
  C  C5  1  0.69364334  0.09715869  0.00000000  1
  C  C6  1  0.59760225  0.81050082  0.50000000  1
  C  C7  1  0.20251179  0.60404715  0.50000000  1
  C  C8  1  0.90743113  0.66445609  0.00000000  1
  C  C9  1  0.80434279  0.36896623  0.50000000  1
  Mo  Mo10  1  0.27193555  0.93705559  0.50000000  1
  Mo  Mo11  1  0.37694389  0.21635014  0.00000000  1
  Ti  Ti12  1  0.19636376  0.61802902  0.00000000  1
  Ti  Ti13  1  0.10690072  0.32903116  0.50000000  1
  Ta  Ta14  1  0.70477764  0.08545906  0.50000000  1
  Ta  Ta15  1  0.81018059  0.37447717  0.00000000  1
  Zr  Zr16  1  0.50223559  0.49599193  0.50000000  1
  Zr  Zr17  1  0.61443636  0.79232966  0.00000000  1
  Ag  Ag18  1  0.89662657  0.68810687  0.50000000  1
  Ag  Ag19  1  0.99706425  0.98428073  0.00000000  1
