# generated using pymatgen
data_ZrTaTiCdMoC5
_symmetry_space_group_name_H-M   'P 1'
_cell_length_a   7.19508664
_cell_length_b   7.29121310
_cell_length_c   4.49505188
_cell_angle_alpha   90.00000000
_cell_angle_beta   90.00000000
_cell_angle_gamma   89.15191397
_symmetry_Int_Tables_number   1
_chemical_formula_structural   ZrTaTiCdMoC5
_chemical_formula_sum   'Zr2 Ta2 Ti2 Cd2 Mo2 C10'
_cell_volume   235.78867953
_cell_formula_units_Z   2
loop_
 _symmetry_equiv_pos_site_id
 _symmetry_equiv_pos_as_xyz
  1  'x, y, z'
loop_
 _atom_site_type_symbol
 _atom_site_label
 _atom_site_symmetry_multiplicity
 _atom_site_fract_x
 _atom_site_fract_y
 _atom_site_fract_z
 _atom_site_occupancy
  C  C0  1  0.30744248  0.91374332  0.00000000  1
  C  C1  1  0.50507651  0.49529331  0.00000000  1
  C  C2  1  0.39228933  0.19796722  0.50000000  1
  C  C3  1  0.10961016  0.31979820  0.00000000  1
  C  C4  1  0.01277129  0.02514962  0.50000000  1
  C  C5  1  0.68437565  0.10633035  0.00000000  1
  C  C6  1  0.58121148  0.81685660  0.50000000  1
  C  C7  1  0.20744283  0.60002312  0.50000000  1
  C  C8  1  0.90476076  0.66795073  0.00000000  1
  C  C9  1  0.80029296  0.37141303  0.50000000  1
  Mo  Mo10  1  0.30174601  0.93080188  0.50000000  1
  Mo  Mo11  1  0.38048257  0.20405723  0.00000000  1
  Ti  Ti12  1  0.18987692  0.60231286  0.00000000  1
  Ti  Ti13  1  0.10481228  0.30324053  0.50000000  1
  Ta  Ta14  1  0.72275053  0.09249829  0.50000000  1
  Ta  Ta15  1  0.80373165  0.38857275  0.00000000  1
  Zr  Zr16  1  0.49357730  0.49408957  0.50000000  1
  Zr  Zr17  1  0.60384711  0.79703701  0.00000000  1
  Cd  Cd18  1  0.90087241  0.69125274  0.50000000  1
  Cd  Cd19  1  0.99302976  0.98161164  0.00000000  1
