# generated using pymatgen
data_LuZrTaTiMoC5
_symmetry_space_group_name_H-M   'P 1'
_cell_length_a   7.16324356
_cell_length_b   7.18826302
_cell_length_c   4.55351011
_cell_angle_alpha   90.00000000
_cell_angle_beta   90.00000000
_cell_angle_gamma   90.08820943
_symmetry_Int_Tables_number   1
_chemical_formula_structural   LuZrTaTiMoC5
_chemical_formula_sum   'Lu2 Zr2 Ta2 Ti2 Mo2 C10'
_cell_volume   234.46578062
_cell_formula_units_Z   2
loop_
 _symmetry_equiv_pos_site_id
 _symmetry_equiv_pos_as_xyz
  1  'x, y, z'
loop_
 _atom_site_type_symbol
 _atom_site_label
 _atom_site_symmetry_multiplicity
 _atom_site_fract_x
 _atom_site_fract_y
 _atom_site_fract_z
 _atom_site_occupancy
  C  C0  1  0.30142030  0.90081351  0.00000000  1
  C  C1  1  0.49480432  0.49188860  0.00000000  1
  C  C2  1  0.39544166  0.19413187  0.50000000  1
  C  C3  1  0.10542021  0.30936510  0.00000000  1
  C  C4  1  0.00384843  0.01662073  0.50000000  1
  C  C5  1  0.69093641  0.10663347  0.00000000  1
  C  C6  1  0.58961745  0.81147324  0.50000000  1
  C  C7  1  0.20536775  0.59611417  0.50000000  1
  C  C8  1  0.90629368  0.67978158  0.00000000  1
  C  C9  1  0.80437620  0.38674453  0.50000000  1
  Mo  Mo10  1  0.29733654  0.91239342  0.50000000  1
  Mo  Mo11  1  0.39012828  0.20495992  0.00000000  1
  Ti  Ti12  1  0.20103239  0.59836304  0.00000000  1
  Ti  Ti13  1  0.10535668  0.30363273  0.50000000  1
  Ta  Ta14  1  0.70341210  0.09887555  0.50000000  1
  Ta  Ta15  1  0.80995299  0.39645059  0.00000000  1
  Zr  Zr16  1  0.49706196  0.49412796  0.50000000  1
  Zr  Zr17  1  0.59402074  0.79880227  0.00000000  1
  Lu  Lu18  1  0.90308375  0.69852829  0.50000000  1
  Lu  Lu19  1  0.00108812  0.00029942  0.00000000  1
