# generated using pymatgen
data_ZrTaTiMoWC5
_symmetry_space_group_name_H-M   'P 1'
_cell_length_a   7.04036553
_cell_length_b   7.05610923
_cell_length_c   4.43741415
_cell_angle_alpha   90.00000000
_cell_angle_beta   90.00000000
_cell_angle_gamma   90.36866733
_symmetry_Int_Tables_number   1
_chemical_formula_structural   ZrTaTiMoWC5
_chemical_formula_sum   'Zr2 Ta2 Ti2 Mo2 W2 C10'
_cell_volume   220.43546944
_cell_formula_units_Z   2
loop_
 _symmetry_equiv_pos_site_id
 _symmetry_equiv_pos_as_xyz
  1  'x, y, z'
loop_
 _atom_site_type_symbol
 _atom_site_label
 _atom_site_symmetry_multiplicity
 _atom_site_fract_x
 _atom_site_fract_y
 _atom_site_fract_z
 _atom_site_occupancy
  C  C0  1  0.28914745  0.89484575  0.00000000  1
  C  C1  1  0.50045321  0.49354198  0.00000000  1
  C  C2  1  0.39626560  0.19076857  0.50000000  1
  C  C3  1  0.10004644  0.30238891  0.00000000  1
  C  C4  1  0.00076728  0.00458224  0.50000000  1
  C  C5  1  0.70433936  0.10590129  0.00000000  1
  C  C6  1  0.60366341  0.80854181  0.50000000  1
  C  C7  1  0.19008164  0.59495543  0.50000000  1
  C  C8  1  0.90976398  0.70420280  0.00000000  1
  C  C9  1  0.80847493  0.40213801  0.50000000  1
  Mo  Mo10  1  0.28817916  0.89630931  0.50000000  1
  Mo  Mo11  1  0.38585463  0.19933700  0.00000000  1
  Ti  Ti12  1  0.19655025  0.59418996  0.00000000  1
  Ti  Ti13  1  0.10374060  0.29763929  0.50000000  1
  Ta  Ta14  1  0.70110385  0.10279430  0.50000000  1
  Ta  Ta15  1  0.80705344  0.39905830  0.00000000  1
  Zr  Zr16  1  0.49196191  0.49935366  0.50000000  1
  Zr  Zr17  1  0.59712888  0.80358520  0.00000000  1
  W  W18  1  0.91207193  0.69875853  0.50000000  1
  W  W19  1  0.01335206  0.00710766  0.00000000  1
