# generated using pymatgen
data_ZrTaTiReMoC5
_symmetry_space_group_name_H-M   'P 1'
_cell_length_a   7.02434858
_cell_length_b   7.06820637
_cell_length_c   4.43449921
_cell_angle_alpha   90.00000000
_cell_angle_beta   90.00000000
_cell_angle_gamma   90.03936644
_symmetry_Int_Tables_number   1
_chemical_formula_structural   ZrTaTiReMoC5
_chemical_formula_sum   'Zr2 Ta2 Ti2 Re2 Mo2 C10'
_cell_volume   220.17081774
_cell_formula_units_Z   2
loop_
 _symmetry_equiv_pos_site_id
 _symmetry_equiv_pos_as_xyz
  1  'x, y, z'
loop_
 _atom_site_type_symbol
 _atom_site_label
 _atom_site_symmetry_multiplicity
 _atom_site_fract_x
 _atom_site_fract_y
 _atom_site_fract_z
 _atom_site_occupancy
  C  C0  1  0.29152957  0.89628588  0.00000000  1
  C  C1  1  0.49908631  0.49412321  0.00000000  1
  C  C2  1  0.39369804  0.18954895  0.50000000  1
  C  C3  1  0.10180705  0.30941232  0.00000000  1
  C  C4  1  0.00293232  0.99848032  0.50000000  1
  C  C5  1  0.70329653  0.10688483  0.00000000  1
  C  C6  1  0.60524367  0.80798753  0.50000000  1
  C  C7  1  0.18875366  0.59881021  0.50000000  1
  C  C8  1  0.91484394  0.71678979  0.00000000  1
  C  C9  1  0.80554485  0.39274564  0.50000000  1
  Mo  Mo10  1  0.28721872  0.90640941  0.50000000  1
  Mo  Mo11  1  0.37762967  0.19658285  0.00000000  1
  Ti  Ti12  1  0.19291295  0.60321360  0.00000000  1
  Ti  Ti13  1  0.10140407  0.30089230  0.50000000  1
  Ta  Ta14  1  0.70985661  0.10281309  0.50000000  1
  Ta  Ta15  1  0.80854381  0.39548495  0.00000000  1
  Zr  Zr16  1  0.49076852  0.49730352  0.50000000  1
  Zr  Zr17  1  0.60478243  0.80283903  0.00000000  1
  Re  Re18  1  0.90167402  0.66928540  0.50000000  1
  Re  Re19  1  0.01847325  0.01410719  0.00000000  1
