# generated using pymatgen
data_ZrTaTiMoOsC5
_symmetry_space_group_name_H-M   'P 1'
_cell_length_a   7.02535246
_cell_length_b   7.06137670
_cell_length_c   4.44857376
_cell_angle_alpha   90.00000000
_cell_angle_beta   90.00000000
_cell_angle_gamma   90.44583114
_symmetry_Int_Tables_number   1
_chemical_formula_structural   ZrTaTiMoOsC5
_chemical_formula_sum   'Zr2 Ta2 Ti2 Mo2 Os2 C10'
_cell_volume   220.68110299
_cell_formula_units_Z   2
loop_
 _symmetry_equiv_pos_site_id
 _symmetry_equiv_pos_as_xyz
  1  'x, y, z'
loop_
 _atom_site_type_symbol
 _atom_site_label
 _atom_site_symmetry_multiplicity
 _atom_site_fract_x
 _atom_site_fract_y
 _atom_site_fract_z
 _atom_site_occupancy
  C  C0  1  0.29301557  0.89820177  0.00000000  1
  C  C1  1  0.50295226  0.49478614  0.00000000  1
  C  C2  1  0.38953199  0.18915021  0.50000000  1
  C  C3  1  0.10322585  0.31404192  0.00000000  1
  C  C4  1  0.99720431  0.98777833  0.50000000  1
  C  C5  1  0.70291390  0.10785991  0.00000000  1
  C  C6  1  0.60351290  0.80834218  0.50000000  1
  C  C7  1  0.19328870  0.59849928  0.50000000  1
  C  C8  1  0.91818438  0.71919984  0.00000000  1
  C  C9  1  0.80493810  0.38780483  0.50000000  1
  Mo  Mo10  1  0.27467726  0.90663882  0.50000000  1
  Mo  Mo11  1  0.37172130  0.19587812  0.00000000  1
  Ti  Ti12  1  0.19461687  0.61299098  0.00000000  1
  Ti  Ti13  1  0.10110606  0.30462981  0.50000000  1
  Ta  Ta14  1  0.71009802  0.09870652  0.50000000  1
  Ta  Ta15  1  0.81084725  0.39458981  0.00000000  1
  Zr  Zr16  1  0.49342050  0.49838106  0.50000000  1
  Zr  Zr17  1  0.61124331  0.80160926  0.00000000  1
  Os  Os18  1  0.90663440  0.66572720  0.50000000  1
  Os  Os19  1  0.01686706  0.01518403  0.00000000  1
