# generated using pymatgen
data_ZrTaTiMoIrC5
_symmetry_space_group_name_H-M   'P 1'
_cell_length_a   7.05890261
_cell_length_b   7.04795393
_cell_length_c   4.46914931
_cell_angle_alpha   90.00000000
_cell_angle_beta   90.00000000
_cell_angle_gamma   89.49186376
_symmetry_Int_Tables_number   1
_chemical_formula_structural   ZrTaTiMoIrC5
_chemical_formula_sum   'Zr2 Ta2 Ti2 Mo2 Ir2 C10'
_cell_volume   222.33510066
_cell_formula_units_Z   2
loop_
 _symmetry_equiv_pos_site_id
 _symmetry_equiv_pos_as_xyz
  1  'x, y, z'
loop_
 _atom_site_type_symbol
 _atom_site_label
 _atom_site_symmetry_multiplicity
 _atom_site_fract_x
 _atom_site_fract_y
 _atom_site_fract_z
 _atom_site_occupancy
  C  C0  1  0.29632544  0.90343697  0.00000000  1
  C  C1  1  0.50457460  0.49180680  0.00000000  1
  C  C2  1  0.38871781  0.19435759  0.50000000  1
  C  C3  1  0.10445273  0.31548227  0.00000000  1
  C  C4  1  0.00005135  0.96803316  0.50000000  1
  C  C5  1  0.70669525  0.10412385  0.00000000  1
  C  C6  1  0.59549364  0.80884267  0.50000000  1
  C  C7  1  0.18688785  0.60352972  0.50000000  1
  C  C8  1  0.91816221  0.71522059  0.00000000  1
  C  C9  1  0.80506864  0.37893456  0.50000000  1
  Mo  Mo10  1  0.29234104  0.91794705  0.50000000  1
  Mo  Mo11  1  0.37223842  0.20645320  0.00000000  1
  Ti  Ti12  1  0.19153350  0.62098305  0.00000000  1
  Ti  Ti13  1  0.10349776  0.31525720  0.50000000  1
  Ta  Ta14  1  0.72143935  0.08773998  0.50000000  1
  Ta  Ta15  1  0.81002364  0.38877090  0.00000000  1
  Zr  Zr16  1  0.49366974  0.49706953  0.50000000  1
  Zr  Zr17  1  0.60877096  0.79939474  0.00000000  1
  Ir  Ir18  1  0.88223434  0.67235355  0.50000000  1
  Ir  Ir19  1  0.01782172  0.01026263  0.00000000  1
