# generated using pymatgen
data_ZrTaTiMoPtC5
_symmetry_space_group_name_H-M   'P 1'
_cell_length_a   7.08668167
_cell_length_b   7.07805191
_cell_length_c   4.50484745
_cell_angle_alpha   90.00000000
_cell_angle_beta   90.00000000
_cell_angle_gamma   89.14453887
_symmetry_Int_Tables_number   1
_chemical_formula_structural   ZrTaTiMoPtC5
_chemical_formula_sum   'Zr2 Ta2 Ti2 Mo2 Pt2 C10'
_cell_volume   225.93751508
_cell_formula_units_Z   2
loop_
 _symmetry_equiv_pos_site_id
 _symmetry_equiv_pos_as_xyz
  1  'x, y, z'
loop_
 _atom_site_type_symbol
 _atom_site_label
 _atom_site_symmetry_multiplicity
 _atom_site_fract_x
 _atom_site_fract_y
 _atom_site_fract_z
 _atom_site_occupancy
  C  C0  1  0.29438480  0.90540794  0.00000000  1
  C  C1  1  0.50591705  0.49375041  0.00000000  1
  C  C2  1  0.39106521  0.19614728  0.50000000  1
  C  C3  1  0.10527578  0.31297023  0.00000000  1
  C  C4  1  0.00084196  0.97117567  0.50000000  1
  C  C5  1  0.70304583  0.10373514  0.00000000  1
  C  C6  1  0.59801829  0.80812838  0.50000000  1
  C  C7  1  0.19003533  0.60225314  0.50000000  1
  C  C8  1  0.91554483  0.70550473  0.00000000  1
  C  C9  1  0.80526772  0.37741106  0.50000000  1
  Mo  Mo10  1  0.28810483  0.92513599  0.50000000  1
  Mo  Mo11  1  0.37470490  0.21450383  0.00000000  1
  Ti  Ti12  1  0.19416776  0.61944120  0.00000000  1
  Ti  Ti13  1  0.10688241  0.31861597  0.50000000  1
  Ta  Ta14  1  0.71779280  0.08543246  0.50000000  1
  Ta  Ta15  1  0.80976785  0.38434884  0.00000000  1
  Zr  Zr16  1  0.49636225  0.49724876  0.50000000  1
  Zr  Zr17  1  0.60763578  0.79777657  0.00000000  1
  Pt  Pt18  1  0.89036795  0.67645898  0.50000000  1
  Pt  Pt19  1  0.00481663  0.00455339  0.00000000  1
