# generated using pymatgen
data_AlFeCoNiW
_symmetry_space_group_name_H-M   'P 1'
_cell_length_a   5.72905975
_cell_length_b   5.83447633
_cell_length_c   7.50347638
_cell_angle_alpha   90.21359200
_cell_angle_beta   89.14602752
_cell_angle_gamma   89.52156965
_symmetry_Int_Tables_number   1
_chemical_formula_structural   AlFeCoNiW
_chemical_formula_sum   'Al4 Fe4 Co4 Ni4 W4'
_cell_volume   250.77321584
_cell_formula_units_Z   4
loop_
 _symmetry_equiv_pos_site_id
 _symmetry_equiv_pos_as_xyz
  1  'x, y, z'
loop_
 _atom_site_type_symbol
 _atom_site_label
 _atom_site_symmetry_multiplicity
 _atom_site_fract_x
 _atom_site_fract_y
 _atom_site_fract_z
 _atom_site_occupancy
  Al  Al0  1  0.07590460  0.28259080  0.74214583  1
  Al  Al1  1  0.20511090  0.59053581  0.00333710  1
  Al  Al2  1  0.30828999  0.90025019  0.24762165  1
  Al  Al3  1  0.43796057  0.19796815  0.99640365  1
  Co  Co4  1  0.29612643  0.89818899  0.75209493  1
  Co  Co5  1  0.49018803  0.49624399  0.74643420  1
  Co  Co6  1  0.60095564  0.79804992  0.49421802  1
  Co  Co7  1  0.89951376  0.70044561  0.25275470  1
  W  W8  1  0.97955010  0.00401395  0.01068945  1
  W  W9  1  0.20110053  0.60796797  0.50562320  1
  W  W10  1  0.41733062  0.19230132  0.50412816  1
  W  W11  1  0.86436914  0.70607389  0.74604310  1
  Fe  Fe12  1  0.70860765  0.09770710  0.26240313  1
  Fe  Fe13  1  0.79606553  0.40431227  0.48765741  1
  Fe  Fe14  1  0.59495219  0.79475140  0.00296752  1
  Fe  Fe15  1  0.81067425  0.41522600  0.00700559  1
  Ni  Ni16  1  0.00226587  0.00440071  0.49328990  1
  Ni  Ni17  1  0.10652839  0.30335865  0.24841841  1
  Ni  Ni18  1  0.69349728  0.10589451  0.74732797  1
  Ni  Ni19  1  0.51100852  0.49971878  0.24943606  1
