# generated using pymatgen
data_ZrMnFeCoNi
_symmetry_space_group_name_H-M   'P 1'
_cell_length_a   5.83480628
_cell_length_b   5.80847807
_cell_length_c   7.63512540
_cell_angle_alpha   89.51045562
_cell_angle_beta   89.19389544
_cell_angle_gamma   89.11100115
_symmetry_Int_Tables_number   1
_chemical_formula_structural   ZrMnFeCoNi
_chemical_formula_sum   'Zr4 Mn4 Fe4 Co4 Ni4'
_cell_volume   258.69893865
_cell_formula_units_Z   4
loop_
 _symmetry_equiv_pos_site_id
 _symmetry_equiv_pos_as_xyz
  1  'x, y, z'
loop_
 _atom_site_type_symbol
 _atom_site_label
 _atom_site_symmetry_multiplicity
 _atom_site_fract_x
 _atom_site_fract_y
 _atom_site_fract_z
 _atom_site_occupancy
  Zr  Zr0  1  0.06597664  0.27806755  0.72606108  1
  Zr  Zr1  1  0.19938844  0.64455293  0.98296574  1
  Zr  Zr2  1  0.29462098  0.89926106  0.29474077  1
  Zr  Zr3  1  0.42880175  0.17674016  0.99611524  1
  Co  Co4  1  0.30015987  0.88820202  0.70112897  1
  Co  Co5  1  0.53540838  0.49557188  0.74024329  1
  Co  Co6  1  0.61364593  0.78039162  0.50719103  1
  Co  Co7  1  0.86671440  0.70077225  0.25681929  1
  Mn  Mn8  1  0.95267879  0.02784966  0.01067470  1
  Mn  Mn9  1  0.20362139  0.57863648  0.51726871  1
  Mn  Mn10  1  0.43906625  0.22799974  0.50201852  1
  Mn  Mn11  1  0.88283701  0.72121048  0.74053387  1
  Fe  Fe12  1  0.73226213  0.10450477  0.26606440  1
  Fe  Fe13  1  0.78413987  0.40975498  0.48373805  1
  Fe  Fe14  1  0.64619799  0.77956023  -0.00021961  1
  Fe  Fe15  1  0.80828192  0.41248600  0.02044063  1
  Ni  Ni16  1  0.96897904  0.98187782  0.50005055  1
  Ni  Ni17  1  0.10172932  0.32742192  0.26987059  1
  Ni  Ni18  1  0.67374932  0.07714652  0.73109092  1
  Ni  Ni19  1  0.50174058  0.48799196  0.25320321  1
