# generated using pymatgen
data_AlFeCoNiAu
_symmetry_space_group_name_H-M   'P 1'
_cell_length_a   5.85562050
_cell_length_b   5.88701669
_cell_length_c   7.55196649
_cell_angle_alpha   89.98417849
_cell_angle_beta   90.30098082
_cell_angle_gamma   89.71117290
_symmetry_Int_Tables_number   1
_chemical_formula_structural   AlFeCoNiAu
_chemical_formula_sum   'Al4 Fe4 Co4 Ni4 Au4'
_cell_volume   260.32550156
_cell_formula_units_Z   4
loop_
 _symmetry_equiv_pos_site_id
 _symmetry_equiv_pos_as_xyz
  1  'x, y, z'
loop_
 _atom_site_type_symbol
 _atom_site_label
 _atom_site_symmetry_multiplicity
 _atom_site_fract_x
 _atom_site_fract_y
 _atom_site_fract_z
 _atom_site_occupancy
  Al  Al0  1  0.08534340  0.28377987  0.73657826  1
  Al  Al1  1  0.18882956  0.59058455  0.00577751  1
  Al  Al2  1  0.30145120  0.90522458  0.26233857  1
  Al  Al3  1  0.43313016  0.19604824  0.99493673  1
  Co  Co4  1  0.34566759  0.88265881  0.76449168  1
  Co  Co5  1  0.48477718  0.49086284  0.77747662  1
  Co  Co6  1  0.62105990  0.79221622  0.48278767  1
  Co  Co7  1  0.87689420  0.69241871  0.25122849  1
  Au  Au8  1  0.01544459  0.01087304  0.00577801  1
  Au  Au9  1  0.20884055  0.61520600  0.49755255  1
  Au  Au10  1  0.40387422  0.18751537  0.50573124  1
  Au  Au11  1  0.88305527  0.69669746  0.75006677  1
  Fe  Fe12  1  0.70823319  0.10308431  0.24363868  1
  Fe  Fe13  1  0.78899450  0.41207290  0.47814526  1
  Fe  Fe14  1  0.59254837  0.78907893  0.00910545  1
  Fe  Fe15  1  0.78904587  0.41389874  0.01366678  1
  Ni  Ni16  1  0.97488076  0.01340930  0.48666857  1
  Ni  Ni17  1  0.09428279  0.31047538  0.24897551  1
  Ni  Ni18  1  0.70600085  0.11365597  0.74780246  1
  Ni  Ni19  1  0.49764585  0.50023877  0.23725320  1
