# generated using pymatgen
data_MnFeCoNiPt
_symmetry_space_group_name_H-M   'P 1'
_cell_length_a   5.68308912
_cell_length_b   5.67499853
_cell_length_c   7.21957628
_cell_angle_alpha   90.08715991
_cell_angle_beta   89.89983367
_cell_angle_gamma   89.82836991
_symmetry_Int_Tables_number   1
_chemical_formula_structural   MnFeCoNiPt
_chemical_formula_sum   'Mn4 Fe4 Co4 Ni4 Pt4'
_cell_volume   232.84065455
_cell_formula_units_Z   4
loop_
 _symmetry_equiv_pos_site_id
 _symmetry_equiv_pos_as_xyz
  1  'x, y, z'
loop_
 _atom_site_type_symbol
 _atom_site_label
 _atom_site_symmetry_multiplicity
 _atom_site_fract_x
 _atom_site_fract_y
 _atom_site_fract_z
 _atom_site_occupancy
  Pt  Pt0  1  0.08639794  0.29445892  0.74070302  1
  Pt  Pt1  1  0.19416922  0.61362883  0.99557830  1
  Pt  Pt2  1  0.29984763  0.90476803  0.26629081  1
  Pt  Pt3  1  0.41439296  0.19336382  0.99641052  1
  Co  Co4  1  0.30428821  0.89268876  0.73253349  1
  Co  Co5  1  0.51588146  0.50990256  0.74503630  1
  Co  Co6  1  0.60593060  0.78276563  0.50392311  1
  Co  Co7  1  0.88916484  0.69886066  0.25622429  1
  Mn  Mn8  1  0.97188824  0.99969919  0.00425006  1
  Mn  Mn9  1  0.22101676  0.59528581  0.50493517  1
  Mn  Mn10  1  0.40781039  0.22287527  0.50097376  1
  Mn  Mn11  1  0.88905907  0.70531021  0.74850064  1
  Fe  Fe12  1  0.71108284  0.09810152  0.25255974  1
  Fe  Fe13  1  0.78192829  0.39802147  0.49593050  1
  Fe  Fe14  1  0.62685071  0.79612305  0.99787125  1
  Fe  Fe15  1  0.79959567  0.40652606  0.00569102  1
  Ni  Ni16  1  0.98610644  0.99196261  0.50073117  1
  Ni  Ni17  1  0.09064115  0.30680604  0.25945112  1
  Ni  Ni18  1  0.69376402  0.09054299  0.73937200  1
  Ni  Ni19  1  0.51018356  0.49830858  0.25303370  1
