# generated using pymatgen
data_Hf2CN
_symmetry_space_group_name_H-M   'P 1'
_cell_length_a   3.25202982
_cell_length_b   4.57616208
_cell_length_c   6.51787101
_cell_angle_alpha   90.00000000
_cell_angle_beta   90.00000000
_cell_angle_gamma   90.00000000
_symmetry_Int_Tables_number   1
_chemical_formula_structural   Hf2CN
_chemical_formula_sum   'Hf4 C2 N2'
_cell_volume   96.99775412
_cell_formula_units_Z   2
loop_
 _symmetry_equiv_pos_site_id
 _symmetry_equiv_pos_as_xyz
  1  'x, y, z'
loop_
 _atom_site_type_symbol
 _atom_site_label
 _atom_site_symmetry_multiplicity
 _atom_site_fract_x
 _atom_site_fract_y
 _atom_site_fract_z
 _atom_site_occupancy
  C  C0  1  0.25000000  0.75000000  0.12920283  1
  C  C1  1  0.75000000  0.25000000  0.87079717  1
  Hf  Hf2  1  0.25000000  0.25000000  0.63041345  1
  Hf  Hf3  1  0.75000000  0.75000000  0.36958655  1
  Hf  Hf4  1  0.25000000  0.25000000  0.12106149  1
  Hf  Hf5  1  0.75000000  0.75000000  0.87893851  1
  N  N6  1  0.25000000  0.75000000  0.62091040  1
  N  N7  1  0.75000000  0.25000000  0.37908960  1
