# generated using pymatgen
data_Hf2CN
_symmetry_space_group_name_H-M   'P 1'
_cell_length_a   7.95538843
_cell_length_b   7.95462650
_cell_length_c   3.25131695
_cell_angle_alpha   90.00000000
_cell_angle_beta   90.00000000
_cell_angle_gamma   109.52148213
_symmetry_Int_Tables_number   1
_chemical_formula_structural   Hf2CN
_chemical_formula_sum   'Hf8 C4 N4'
_cell_volume   193.92301094
_cell_formula_units_Z   4
loop_
 _symmetry_equiv_pos_site_id
 _symmetry_equiv_pos_as_xyz
  1  'x, y, z'
loop_
 _atom_site_type_symbol
 _atom_site_label
 _atom_site_symmetry_multiplicity
 _atom_site_fract_x
 _atom_site_fract_y
 _atom_site_fract_z
 _atom_site_occupancy
  C  C0  1  0.12246010  0.87434966  0.50000000  1
  C  C1  1  0.99728711  0.49878964  0.00000000  1
  C  C2  1  0.25065357  0.25274835  0.00000000  1
  C  C3  1  0.50475724  0.99888290  0.00000000  1
  Hf  Hf4  1  0.12436833  0.37479840  0.50000000  1
  Hf  Hf5  1  0.00473211  0.00114479  0.00000000  1
  Hf  Hf6  1  0.37290828  0.12229660  0.50000000  1
  Hf  Hf7  1  0.24903344  0.75169492  0.00000000  1
  Hf  Hf8  1  0.62320383  0.87759404  0.50000000  1
  Hf  Hf9  1  0.49698932  0.49434017  0.00000000  1
  Hf  Hf10  1  0.88018543  0.62688780  0.50000000  1
  Hf  Hf11  1  0.74842890  0.25126490  0.00000000  1
  N  N12  1  0.87196827  0.12401339  0.50000000  1
  N  N13  1  0.74612918  0.74853292  0.00000000  1
  N  N14  1  0.38097524  0.62366025  0.50000000  1
  N  N15  1  0.62591964  0.37900125  0.50000000  1
