# generated using pymatgen
data_Hf2CN
_symmetry_space_group_name_H-M   'P 1'
_cell_length_a   7.95538851
_cell_length_b   3.25131694
_cell_length_c   7.95462651
_cell_angle_alpha   90.00000000
_cell_angle_beta   70.47851822
_cell_angle_gamma   90.00000000
_symmetry_Int_Tables_number   1
_chemical_formula_structural   Hf2CN
_chemical_formula_sum   'Hf8 C4 N4'
_cell_volume   193.92301307
_cell_formula_units_Z   4
loop_
 _symmetry_equiv_pos_site_id
 _symmetry_equiv_pos_as_xyz
  1  'x, y, z'
loop_
 _atom_site_type_symbol
 _atom_site_label
 _atom_site_symmetry_multiplicity
 _atom_site_fract_x
 _atom_site_fract_y
 _atom_site_fract_z
 _atom_site_occupancy
  C  C0  1  0.00475725  0.00000000  0.50111708  1
  C  C1  1  0.62246010  0.50000000  0.62565034  1
  C  C2  1  0.75065357  0.00000000  0.24725164  1
  C  C3  1  0.49728711  0.00000000  0.00121037  1
  Hf  Hf4  1  0.87290829  0.50000000  0.37770338  1
  Hf  Hf5  1  0.99698934  0.00000000  0.00565981  1
  Hf  Hf6  1  0.62436836  0.50000000  0.12520157  1
  Hf  Hf7  1  0.74903346  0.00000000  0.74830509  1
  Hf  Hf8  1  0.38018538  0.50000000  0.87311220  1
  Hf  Hf9  1  0.50473210  0.00000000  0.49885522  1
  Hf  Hf10  1  0.12320384  0.50000000  0.62240601  1
  Hf  Hf11  1  0.24842888  0.00000000  0.24873509  1
  N  N12  1  0.12591964  0.50000000  0.12099875  1
  N  N13  1  0.24612915  0.00000000  0.75146708  1
  N  N14  1  0.88097524  0.50000000  0.87633977  1
  N  N15  1  0.37196826  0.50000000  0.37598659  1
