# generated using pymatgen
data_Hf2CN
_symmetry_space_group_name_H-M   'P 1'
_cell_length_a   6.49932503
_cell_length_b   6.49932502
_cell_length_c   7.95214463
_cell_angle_alpha   90.00000000
_cell_angle_beta   90.00000000
_cell_angle_gamma   119.99999998
_symmetry_Int_Tables_number   1
_chemical_formula_structural   Hf2CN
_chemical_formula_sum   'Hf12 C6 N6'
_cell_volume   290.90515324
_cell_formula_units_Z   6
loop_
 _symmetry_equiv_pos_site_id
 _symmetry_equiv_pos_as_xyz
  1  'x, y, z'
loop_
 _atom_site_type_symbol
 _atom_site_label
 _atom_site_symmetry_multiplicity
 _atom_site_fract_x
 _atom_site_fract_y
 _atom_site_fract_z
 _atom_site_occupancy
  C  C0  1  0.16712007  0.83287993  0.17077166  1
  C  C1  1  0.16712007  0.33424013  0.17077166  1
  C  C2  1  0.66575987  0.83287993  0.17077166  1
  C  C3  1  0.33424013  0.16712007  0.82922834  1
  C  C4  1  0.83287993  0.16712007  0.82922834  1
  C  C5  1  0.83287993  0.66575987  0.82922834  1
  Hf  Hf6  1  0.16556633  0.83443367  0.67040605  1
  Hf  Hf7  1  0.16556633  0.33113266  0.67040605  1
  Hf  Hf8  1  0.66886734  0.83443367  0.67040605  1
  Hf  Hf9  1  0.33113266  0.16556633  0.32959395  1
  Hf  Hf10  1  0.83443367  0.16556633  0.32959395  1
  Hf  Hf11  1  0.83443367  0.66886734  0.32959395  1
  Hf  Hf12  1  0.00000000  0.00000000  0.00000000  1
  Hf  Hf13  1  0.50000000  0.00000000  0.00000000  1
  Hf  Hf14  1  0.00000000  0.50000000  0.00000000  1
  Hf  Hf15  1  0.50000000  0.50000000  0.00000000  1
  Hf  Hf16  1  0.33333333  0.66666667  0.32936771  1
  Hf  Hf17  1  0.66666667  0.33333333  0.67063229  1
  N  N18  1  0.00000000  0.00000000  0.50000000  1
  N  N19  1  0.50000000  0.00000000  0.50000000  1
  N  N20  1  0.00000000  0.50000000  0.50000000  1
  N  N21  1  0.50000000  0.50000000  0.50000000  1
  N  N22  1  0.33333333  0.66666667  0.82924643  1
  N  N23  1  0.66666667  0.33333333  0.17075357  1
