# generated using pymatgen
data_TiAl7N8
_symmetry_space_group_name_H-M   'P 1'
_cell_length_a   5.91686274
_cell_length_b   5.91686275
_cell_length_c   5.48411298
_cell_angle_alpha   90.01686425
_cell_angle_beta   89.98314041
_cell_angle_gamma   115.17858994
_symmetry_Int_Tables_number   1
_chemical_formula_structural   TiAl7N8
_chemical_formula_sum   'Ti1 Al7 N8'
_cell_volume   173.75258007
_cell_formula_units_Z   1
loop_
 _symmetry_equiv_pos_site_id
 _symmetry_equiv_pos_as_xyz
  1  'x, y, z'
loop_
 _atom_site_type_symbol
 _atom_site_label
 _atom_site_symmetry_multiplicity
 _atom_site_fract_x
 _atom_site_fract_y
 _atom_site_fract_z
 _atom_site_occupancy
  Al  Al0  1  0.49644442  0.49634445  0.33325692  1
  Al  Al1  1  0.25338225  0.24661825  0.83293378  1
  Al  Al2  1  0.00365605  0.00355608  0.33325692  1
  Al  Al3  1  0.99850255  0.50149695  0.16439223  1
  Al  Al4  1  0.75321992  0.25967485  0.66487560  1
  Al  Al5  1  0.49848148  0.00151802  0.17354822  1
  Al  Al6  1  0.24032465  0.74677958  0.66487560  1
  N  N7  1  0.69144962  0.31048917  0.33264857  1
  N  N8  1  0.44819340  0.05180710  0.83334036  1
  N  N9  1  0.18951133  0.80855088  0.33264857  1
  N  N10  1  0.93771330  0.56228720  0.83573249  1
  N  N11  1  0.19203568  0.30796382  0.16094790  1
  N  N12  1  0.95427084  0.07677626  0.65910950  1
  N  N13  1  0.68872317  0.81127633  0.18883013  1
  N  N14  1  0.42322324  0.54572866  0.65910950  1
  Ti  Ti15  1  0.73086809  0.76913241  0.83049372  1
