# generated using pymatgen
data_TiAl7N8
_symmetry_space_group_name_H-M   'P 1'
_cell_length_a   9.99180797
_cell_length_b   5.91734395
_cell_length_c   5.48271150
_cell_angle_alpha   89.99329543
_cell_angle_beta   89.99205884
_cell_angle_gamma   32.40496465
_symmetry_Int_Tables_number   1
_chemical_formula_structural   TiAl7N8
_chemical_formula_sum   'Ti1 Al7 N8'
_cell_volume   173.72007261
_cell_formula_units_Z   1
loop_
 _symmetry_equiv_pos_site_id
 _symmetry_equiv_pos_as_xyz
  1  'x, y, z'
loop_
 _atom_site_type_symbol
 _atom_site_label
 _atom_site_symmetry_multiplicity
 _atom_site_fract_x
 _atom_site_fract_y
 _atom_site_fract_z
 _atom_site_occupancy
  Al  Al0  1  0.50357473  0.00000000  0.33316631  1
  Al  Al1  1  0.74619831  0.50744958  0.83315334  1
  Al  Al2  1  0.25364788  0.49255042  0.83315334  1
  Al  Al3  1  0.49033400  0.51296686  0.16475612  1
  Al  Al4  1  0.00330086  0.48703314  0.16475612  1
  Al  Al5  1  0.74861433  0.00000000  0.67381765  1
  Al  Al6  1  0.24823404  0.00000000  0.66434581  1
  N  N7  1  0.69847348  0.00000000  0.33352611  1
  N  N8  1  0.94131220  0.49820815  0.83267584  1
  N  N9  1  0.43952035  0.50179185  0.83267584  1
  N  N10  1  0.18770566  0.00000000  0.33556431  1
  N  N11  1  0.67316542  0.53131207  0.15926010  1
  N  N12  1  0.20447749  0.46868793  0.15926010  1
  N  N13  1  0.93878293  0.00000000  0.68883318  1
  N  N14  1  0.44179076  0.00000000  0.66084720  1
  Ti  Ti15  1  0.98086755  0.00000000  0.33020863  1
