# generated using pymatgen
data_TiAl7N8
_symmetry_space_group_name_H-M   'P 1'
_cell_length_a   7.33873581
_cell_length_b   6.34964579
_cell_length_c   7.48219356
_cell_angle_alpha   90.00000000
_cell_angle_beta   84.84460706
_cell_angle_gamma   90.00000000
_symmetry_Int_Tables_number   1
_chemical_formula_structural   TiAl7N8
_chemical_formula_sum   'Ti2 Al14 N16'
_cell_volume   347.24760497
_cell_formula_units_Z   2
loop_
 _symmetry_equiv_pos_site_id
 _symmetry_equiv_pos_as_xyz
  1  'x, y, z'
loop_
 _atom_site_type_symbol
 _atom_site_label
 _atom_site_symmetry_multiplicity
 _atom_site_fract_x
 _atom_site_fract_y
 _atom_site_fract_z
 _atom_site_occupancy
  Al  Al0  1  0.66237316  0.74900275  0.66779042  1
  Al  Al1  1  0.66237316  0.25099725  0.66779042  1
  Al  Al2  1  0.16687928  0.75494000  0.17459604  1
  Al  Al3  1  0.16687928  0.24506000  0.17459604  1
  Al  Al4  1  0.41314039  0.50000000  0.42254778  1
  Al  Al5  1  0.41878421  0.00000000  0.41906057  1
  Al  Al6  1  0.91932111  0.00000000  0.91720291  1
  Al  Al7  1  0.58380424  0.75234879  0.08788824  1
  Al  Al8  1  0.58380424  0.24765121  0.08788824  1
  Al  Al9  1  0.08020168  0.75372670  0.57599751  1
  Al  Al10  1  0.08020168  0.24627330  0.57599751  1
  Al  Al11  1  0.33248588  0.00000000  0.83106336  1
  Al  Al12  1  0.83195510  0.50000000  0.34006545  1
  Al  Al13  1  0.82976172  0.00000000  0.33451663  1
  N  N14  1  0.85250524  0.75376495  0.47417776  1
  N  N15  1  0.85250524  0.24623505  0.47417776  1
  N  N16  1  0.35753660  0.76394835  0.98216233  1
  N  N17  1  0.35753660  0.23605165  0.98216233  1
  N  N18  1  0.60853103  0.50000000  0.22388310  1
  N  N19  1  0.60797591  0.00000000  0.22642789  1
  N  N20  1  0.09722238  0.50000000  0.69761814  1
  N  N21  1  0.10692908  0.00000000  0.72293971  1
  N  N22  1  0.77253786  0.75796698  0.89235656  1
  N  N23  1  0.77253786  0.24203302  0.89235656  1
  N  N24  1  0.27782523  0.75407479  0.39283300  1
  N  N25  1  0.27782523  0.24592521  0.39283300  1
  N  N26  1  0.52195149  0.50000000  0.64351752  1
  N  N27  1  0.52352398  0.00000000  0.64299609  1
  N  N28  1  0.03479731  0.50000000  0.15852875  1
  N  N29  1  0.02252163  0.00000000  0.14420172  1
  Ti  Ti30  1  0.92082721  0.50000000  0.91735241  1
  Ti  Ti31  1  0.30294500  0.50000000  0.86247426  1
