# generated using pymatgen
data_Hf4C3N
_symmetry_space_group_name_H-M   'P 1'
_cell_length_a   6.53820729
_cell_length_b   7.30334593
_cell_length_c   8.64940044
_cell_angle_alpha   85.16775046
_cell_angle_beta   79.11295369
_cell_angle_gamma   77.08961700
_symmetry_Int_Tables_number   1
_chemical_formula_structural   Hf4C3N
_chemical_formula_sum   'Hf16 C12 N4'
_cell_volume   394.94771713
_cell_formula_units_Z   4
loop_
 _symmetry_equiv_pos_site_id
 _symmetry_equiv_pos_as_xyz
  1  'x, y, z'
loop_
 _atom_site_type_symbol
 _atom_site_label
 _atom_site_symmetry_multiplicity
 _atom_site_fract_x
 _atom_site_fract_y
 _atom_site_fract_z
 _atom_site_occupancy
  C  C0  1  0.09068672  0.69083910  0.93964613  1
  C  C1  1  0.59515819  0.68739218  0.93890947  1
  C  C2  1  0.96761210  0.43692628  0.68985434  1
  C  C3  1  0.46932065  0.43550415  0.68964751  1
  C  C4  1  0.27939235  0.06184061  0.81648361  1
  C  C5  1  0.15612230  0.81334178  0.56006339  1
  C  C6  1  0.65674049  0.81473391  0.56059490  1
  C  C7  1  0.03123865  0.56243953  0.31007249  1
  C  C8  1  0.53209863  0.56377364  0.31062896  1
  C  C9  1  0.40760463  0.31080631  0.06284471  1
  C  C10  1  0.34458708  0.18619648  0.43560860  1
  C  C11  1  0.84439555  0.18641975  0.43555191  1
  Hf  Hf12  1  0.68602620  0.37717392  0.87323571  1
  Hf  Hf13  1  0.18863801  0.37533253  0.87344183  1
  Hf  Hf14  1  0.56158003  0.12544920  0.62357911  1
  Hf  Hf15  1  0.06341477  0.12562606  0.62431855  1
  Hf  Hf16  1  0.87556355  0.74845025  0.74932263  1
  Hf  Hf17  1  0.37527760  0.75028643  0.74929649  1
  Hf  Hf18  1  0.74984745  0.49956171  0.50001413  1
  Hf  Hf19  1  0.25008567  0.50032169  0.50053206  1
  Hf  Hf20  1  0.62335930  0.24996339  0.25179546  1
  Hf  Hf21  1  0.12543967  0.25089453  0.25274493  1
  Hf  Hf22  1  0.49875948  0.00086013  0.99785047  1
  Hf  Hf23  1  0.00326188  0.99845524  0.99690379  1
  Hf  Hf24  1  0.93724098  0.87428267  0.37807837  1
  Hf  Hf25  1  0.43671410  0.87360477  0.37826927  1
  Hf  Hf26  1  0.81183660  0.62622235  0.12550355  1
  Hf  Hf27  1  0.31296784  0.62354763  0.12515659  1
  N  N28  1  0.78109850  0.06213534  0.81825017  1
  N  N29  1  0.90568830  0.30982897  0.06303381  1
  N  N30  1  0.21783373  0.94034390  0.18414417  1
  N  N31  1  0.72040901  0.93744557  0.18462290  1
