# generated using pymatgen
data_Hf2CN
_symmetry_space_group_name_H-M   'P 1'
_cell_length_a   8.58710910
_cell_length_b   8.59968483
_cell_length_c   5.62948629
_cell_angle_alpha   102.54316341
_cell_angle_beta   102.69330841
_cell_angle_gamma   98.20157523
_symmetry_Int_Tables_number   1
_chemical_formula_structural   Hf2CN
_chemical_formula_sum   'Hf16 C8 N8'
_cell_volume   387.88618098
_cell_formula_units_Z   8
loop_
 _symmetry_equiv_pos_site_id
 _symmetry_equiv_pos_as_xyz
  1  'x, y, z'
loop_
 _atom_site_type_symbol
 _atom_site_label
 _atom_site_symmetry_multiplicity
 _atom_site_fract_x
 _atom_site_fract_y
 _atom_site_fract_z
 _atom_site_occupancy
  C  C0  1  0.00132138  0.24652792  0.25030760  1
  C  C1  1  0.74898806  0.50185838  0.25063085  1
  C  C2  1  0.12749841  0.62928466  0.25151422  1
  C  C3  1  0.87494233  0.37425319  0.74942513  1
  C  C4  1  0.74965029  0.99804545  0.74855058  1
  C  C5  1  0.49651524  0.24637726  0.74949963  1
  C  C6  1  0.25132901  0.50116068  0.75120210  1
  C  C7  1  0.62454023  0.62786270  0.74975584  1
  Hf  Hf8  1  0.87426327  0.62146878  0.99817321  1
  Hf  Hf9  1  0.62776489  0.87265238  0.99572268  1
  Hf  Hf10  1  0.75058312  0.25145052  0.00185347  1
  Hf  Hf11  1  0.50121569  0.49876926  0.99819870  1
  Hf  Hf12  1  0.24986691  0.74612334  0.99736025  1
  Hf  Hf13  1  0.37602022  0.12772813  0.00196708  1
  Hf  Hf14  1  0.12275272  0.37768475  0.99924554  1
  Hf  Hf15  1  0.99743422  0.00376897  0.00007484  1
  Hf  Hf16  1  0.74943002  0.74838776  0.49958936  1
  Hf  Hf17  1  0.87392047  0.12821289  0.50427933  1
  Hf  Hf18  1  0.62756258  0.37734024  0.50453955  1
  Hf  Hf19  1  0.37399418  0.62169308  0.50005985  1
  Hf  Hf20  1  0.12383709  0.87103757  0.49249906  1
  Hf  Hf21  1  0.50296878  0.00304600  0.50620302  1
  Hf  Hf22  1  0.24917931  0.25266883  0.50296616  1
  Hf  Hf23  1  0.99929360  0.49824553  0.49743380  1
  N  N24  1  0.87713006  0.87686353  0.25068994  1
  N  N25  1  0.62050564  0.12090745  0.24762756  1
  N  N26  1  0.37414864  0.37160027  0.24931303  1
  N  N27  1  0.49895891  0.75290128  0.25014326  1
  N  N28  1  0.24989939  0.99807128  0.24870443  1
  N  N29  1  0.00334654  0.75522366  0.75095543  1
  N  N30  1  0.37365639  0.87779861  0.75139416  1
  N  N31  1  0.12748243  0.12098568  0.75012039  1
