# generated using pymatgen
data_Hf4CN3
_symmetry_space_group_name_H-M   'P 1'
_cell_length_a   6.45937194
_cell_length_b   7.21456762
_cell_length_c   8.53760414
_cell_angle_alpha   85.15963945
_cell_angle_beta   79.10498801
_cell_angle_gamma   77.10853577
_symmetry_Int_Tables_number   1
_chemical_formula_structural   Hf4CN3
_chemical_formula_sum   'Hf16 C4 N12'
_cell_volume   380.47620576
_cell_formula_units_Z   4
loop_
 _symmetry_equiv_pos_site_id
 _symmetry_equiv_pos_as_xyz
  1  'x, y, z'
loop_
 _atom_site_type_symbol
 _atom_site_label
 _atom_site_symmetry_multiplicity
 _atom_site_fract_x
 _atom_site_fract_y
 _atom_site_fract_z
 _atom_site_occupancy
  N  N0  1  0.09792052  0.68245059  0.93555432  1
  N  N1  1  0.59204288  0.68560114  0.93631818  1
  N  N2  1  0.97076301  0.43778311  0.68541073  1
  N  N3  1  0.46732463  0.44040502  0.68541866  1
  N  N4  1  0.28320742  0.06182989  0.80855616  1
  N  N5  1  0.15817693  0.80803054  0.56435420  1
  N  N6  1  0.65500813  0.80905762  0.56501373  1
  N  N7  1  0.03232303  0.56252985  0.31412488  1
  N  N8  1  0.52905910  0.56292536  0.31501661  1
  N  N9  1  0.40472967  0.31572965  0.06227897  1
  N  N10  1  0.34225556  0.19209663  0.43905261  1
  N  N11  1  0.84255328  0.19146354  0.43827834  1
  Hf  Hf12  1  0.69091804  0.37060798  0.87452500  1
  Hf  Hf13  1  0.18572900  0.37109347  0.87543462  1
  Hf  Hf14  1  0.56555535  0.12324038  0.62532811  1
  Hf  Hf15  1  0.06013687  0.12237788  0.62594570  1
  Hf  Hf16  1  0.87316935  0.75301875  0.75246864  1
  Hf  Hf17  1  0.37419158  0.75202489  0.75156710  1
  Hf  Hf18  1  0.75097765  0.50003436  0.49948493  1
  Hf  Hf19  1  0.24947183  0.49972752  0.49959452  1
  Hf  Hf20  1  0.62880510  0.24828671  0.24668005  1
  Hf  Hf21  1  0.12404714  0.24690692  0.24717930  1
  Hf  Hf22  1  0.50150117  0.00007284  0.00120969  1
  Hf  Hf23  1  0.99816633  0.00009412  0.00122341  1
  Hf  Hf24  1  0.93602091  0.87871117  0.37432202  1
  Hf  Hf25  1  0.43774874  0.87877850  0.37339855  1
  Hf  Hf26  1  0.81238151  0.62605529  0.12539984  1
  Hf  Hf27  1  0.31116850  0.62899869  0.12630777  1
  C  C28  1  0.78116117  0.06212069  0.80999003  1
  C  C29  1  0.90633473  0.31555144  0.06212073  1
  C  C30  1  0.21950046  0.93580582  0.18898095  1
  C  C31  1  0.71765040  0.93658967  0.18946166  1
