# generated using pymatgen
data_Ta2CN
_symmetry_space_group_name_H-M   'P 1'
_cell_length_a   8.33251323
_cell_length_b   8.33993629
_cell_length_c   5.47583595
_cell_angle_alpha   102.80046148
_cell_angle_beta   103.14374904
_cell_angle_gamma   97.90347033
_symmetry_Int_Tables_number   1
_chemical_formula_structural   Ta2CN
_chemical_formula_sum   'Ta16 C8 N8'
_cell_volume   354.20838217
_cell_formula_units_Z   8
loop_
 _symmetry_equiv_pos_site_id
 _symmetry_equiv_pos_as_xyz
  1  'x, y, z'
loop_
 _atom_site_type_symbol
 _atom_site_label
 _atom_site_symmetry_multiplicity
 _atom_site_fract_x
 _atom_site_fract_y
 _atom_site_fract_z
 _atom_site_occupancy
  C  C0  1  0.00044555  0.24994579  0.25014598  1
  C  C1  1  0.74817388  0.49980968  0.25132288  1
  C  C2  1  0.12378560  0.62506593  0.25344625  1
  C  C3  1  0.87588118  0.37690704  0.74849562  1
  C  C4  1  0.75187954  0.00209778  0.74477451  1
  C  C5  1  0.50220730  0.25270259  0.74577181  1
  C  C6  1  0.24973270  0.49896660  0.75265970  1
  C  C7  1  0.62502941  0.62479420  0.74908639  1
  Ta  Ta8  1  0.87199981  0.61716605  0.99969341  1
  Ta  Ta9  1  0.62972845  0.87558446  0.98138979  1
  Ta  Ta10  1  0.75095265  0.25041750  0.99453848  1
  Ta  Ta11  1  0.50368177  0.50046775  0.98538655  1
  Ta  Ta12  1  0.24166355  0.73866923  0.00518674  1
  Ta  Ta13  1  0.37704229  0.12366605  0.97304931  1
  Ta  Ta14  1  0.11912059  0.37789257  0.99865946  1
  Ta  Ta15  1  0.99115313  0.00321473  0.01504414  1
  Ta  Ta16  1  0.74858071  0.74777603  0.51291699  1
  Ta  Ta17  1  0.87823778  0.13014329  0.50762093  1
  Ta  Ta18  1  0.62844028  0.37790862  0.51277306  1
  Ta  Ta19  1  0.37325528  0.62943698  0.50946797  1
  Ta  Ta20  1  0.13535657  0.88057610  0.48570046  1
  Ta  Ta21  1  0.49803655  0.00005581  0.52015337  1
  Ta  Ta22  1  0.24935193  0.25133655  0.50854654  1
  Ta  Ta23  1  0.00283210  0.49563785  0.49139278  1
  N  N24  1  0.87243782  0.87217753  0.25517959  1
  N  N25  1  0.61947236  0.11993227  0.25147600  1
  N  N26  1  0.37489348  0.37261602  0.24661543  1
  N  N27  1  0.50119386  0.75364582  0.24614559  1
  N  N28  1  0.25807467  0.00476799  0.23385422  1
  N  N29  1  0.00578640  0.75756674  0.74690079  1
  N  N30  1  0.37058237  0.86897769  0.76334190  1
  N  N31  1  0.12099045  0.12007678  0.75926337  1
