# generated using pymatgen
data_Ta4CN3
_symmetry_space_group_name_H-M   'P 1'
_cell_length_a   6.29191466
_cell_length_b   6.96953461
_cell_length_c   8.32354891
_cell_angle_alpha   85.61100951
_cell_angle_beta   80.20403642
_cell_angle_gamma   77.08292984
_symmetry_Int_Tables_number   1
_chemical_formula_structural   Ta4CN3
_chemical_formula_sum   'Ta16 C4 N12'
_cell_volume   350.29663535
_cell_formula_units_Z   4
loop_
 _symmetry_equiv_pos_site_id
 _symmetry_equiv_pos_as_xyz
  1  'x, y, z'
loop_
 _atom_site_type_symbol
 _atom_site_label
 _atom_site_symmetry_multiplicity
 _atom_site_fract_x
 _atom_site_fract_y
 _atom_site_fract_z
 _atom_site_occupancy
  N  N0  1  0.10985558  0.68595576  0.92606889  1
  N  N1  1  0.57897914  0.68104402  0.94893784  1
  N  N2  1  0.98516509  0.44177375  0.67290520  1
  N  N3  1  0.44903622  0.42921783  0.70202950  1
  N  N4  1  0.28785798  0.05730976  0.80569835  1
  N  N5  1  0.14475147  0.81150254  0.57285073  1
  N  N6  1  0.66677057  0.82375414  0.54999950  1
  N  N7  1  0.01597812  0.55628536  0.33025052  1
  N  N8  1  0.54935754  0.56583435  0.30317193  1
  N  N9  1  0.41101786  0.31902999  0.05266328  1
  N  N10  1  0.33614376  0.18878964  0.44421541  1
  N  N11  1  0.84996830  0.19431581  0.43270815  1
  Ta  Ta12  1  0.70268957  0.36820023  0.86646503  1
  Ta  Ta13  1  0.16450013  0.36998570  0.88160370  1
  Ta  Ta14  1  0.57657796  0.12882789  0.62593035  1
  Ta  Ta15  1  0.04490749  0.12400323  0.63580204  1
  Ta  Ta16  1  0.85590585  0.74996343  0.75559915  1
  Ta  Ta17  1  0.39691726  0.74305496  0.73611391  1
  Ta  Ta18  1  0.72873197  0.50517718  0.51447274  1
  Ta  Ta19  1  0.27153483  0.50640457  0.49271750  1
  Ta  Ta20  1  0.62942823  0.24728527  0.24567994  1
  Ta  Ta21  1  0.12806000  0.24812763  0.24140079  1
  Ta  Ta22  1  0.50438925  0.99883701  0.00464087  1
  Ta  Ta23  1  0.99291402  0.00250539  0.00564417  1
  Ta  Ta24  1  0.95279103  0.87429116  0.36307416  1
  Ta  Ta25  1  0.43032721  0.87601127  0.37019510  1
  Ta  Ta26  1  0.82668150  0.62774059  0.12107073  1
  Ta  Ta27  1  0.29525114  0.62869889  0.13948027  1
  C  C28  1  0.77754030  0.05551580  0.81887622  1
  C  C29  1  0.89564496  0.31382923  0.06675882  1
  C  C30  1  0.22320942  0.94098904  0.18074014  1
  C  C31  1  0.71711623  0.93573857  0.19223510  1
