# generated using pymatgen
data_HfTaC2
_symmetry_space_group_name_H-M   'P 1'
_cell_length_a   10.68034811
_cell_length_b   10.68034811
_cell_length_c   5.57766737
_cell_angle_alpha   94.89913327
_cell_angle_beta   94.89913329
_cell_angle_gamma   17.35276476
_symmetry_Int_Tables_number   1
_chemical_formula_structural   HfTaC2
_chemical_formula_sum   'Hf4 Ta4 C8'
_cell_volume   189.05274826
_cell_formula_units_Z   4
loop_
 _symmetry_equiv_pos_site_id
 _symmetry_equiv_pos_as_xyz
  1  'x, y, z'
loop_
 _atom_site_type_symbol
 _atom_site_label
 _atom_site_symmetry_multiplicity
 _atom_site_fract_x
 _atom_site_fract_y
 _atom_site_fract_z
 _atom_site_occupancy
  C  C0  1  0.93847229  0.93847229  0.30690095  1
  C  C1  1  0.06346804  0.06346804  0.68770399  1
  C  C2  1  0.30929913  0.30929913  0.43731809  1
  C  C3  1  0.18882990  0.18882990  0.06752936  1
  C  C4  1  0.43942990  0.43942990  0.81851012  1
  C  C5  1  0.68810408  0.68810408  0.55854519  1
  C  C6  1  0.56349994  0.56349994  0.18806607  1
  C  C7  1  0.80924712  0.80924712  0.93555971  1
  Hf  Hf8  1  0.87441805  0.87441805  0.62490700  1
  Hf  Hf9  1  0.50057188  0.50057188  0.49924349  1
  Hf  Hf10  1  0.37372598  0.37372598  0.12381687  1
  Hf  Hf11  1  0.62639770  0.62639770  0.87602060  1
  Ta  Ta12  1  0.74926079  0.74926079  0.25144884  1
  Ta  Ta13  1  0.12564235  0.12564235  0.37501435  1
  Ta  Ta14  1  0.00095030  0.00095030  0.00041297  1
  Ta  Ta15  1  0.24868255  0.24868255  0.74900240  1
