# generated using pymatgen
data_HfTaC2
_symmetry_space_group_name_H-M   'P 1'
_cell_length_a   6.44128371
_cell_length_b   6.44128372
_cell_length_c   9.11188526
_cell_angle_alpha   90.00005648
_cell_angle_beta   90.00005647
_cell_angle_gamma   89.98319389
_symmetry_Int_Tables_number   1
_chemical_formula_structural   HfTaC2
_chemical_formula_sum   'Hf8 Ta8 C16'
_cell_volume   378.05334128
_cell_formula_units_Z   8
loop_
 _symmetry_equiv_pos_site_id
 _symmetry_equiv_pos_as_xyz
  1  'x, y, z'
loop_
 _atom_site_type_symbol
 _atom_site_label
 _atom_site_symmetry_multiplicity
 _atom_site_fract_x
 _atom_site_fract_y
 _atom_site_fract_z
 _atom_site_occupancy
  C  C0  1  0.74697927  0.74710422  0.50105731  1
  C  C1  1  0.74620758  0.25375487  0.50111748  1
  C  C2  1  0.25331384  0.74694325  0.50448721  1
  C  C3  1  0.25325866  0.25331043  0.50419713  1
  C  C4  1  0.50289578  0.50302073  0.24894269  1
  C  C5  1  0.50305675  0.99668616  0.24551279  1
  C  C6  1  0.74733055  0.75257715  0.99916534  1
  C  C7  1  0.74669078  0.24666399  0.99915442  1
  C  C8  1  0.99624513  0.50379242  0.24888252  1
  C  C9  1  0.99668957  0.99674134  0.24580287  1
  C  C10  1  0.25275635  0.75274823  0.99625690  1
  C  C11  1  0.25287728  0.24701793  0.99626822  1
  C  C12  1  0.49742285  0.50266945  0.75083466  1
  C  C13  1  0.49725177  0.99724365  0.75374310  1
  C  C14  1  0.00333601  0.50330922  0.75084558  1
  C  C15  1  0.00298207  0.99712272  0.75373178  1
  Hf  Hf16  1  0.74911396  0.25017054  0.75071089  1
  Hf  Hf17  1  0.50008844  0.99951109  0.50074393  1
  Hf  Hf18  1  0.74930052  0.25007295  0.24923665  1
  Hf  Hf19  1  0.99985006  0.99962713  0.50065253  1
  Hf  Hf20  1  0.99992705  0.50069948  0.50076335  1
  Hf  Hf21  1  0.25037287  0.25014994  0.24934747  1
  Hf  Hf22  1  0.25048891  0.74991156  0.24925607  1
  Hf  Hf23  1  0.99982946  0.50088604  0.99928911  1
  Ta  Ta24  1  0.74919852  0.74982104  0.74988494  1
  Ta  Ta25  1  0.25100030  0.25019838  0.75024354  1
  Ta  Ta26  1  0.25111913  0.74976220  0.75041215  1
  Ta  Ta27  1  0.50030598  0.50010779  0.50014302  1
  Ta  Ta28  1  0.74989221  0.74969402  0.24985698  1
  Ta  Ta29  1  0.50023780  0.99888087  0.99958785  1
  Ta  Ta30  1  0.50017896  0.50080148  0.00011506  1
  Ta  Ta31  1  0.99980162  0.99899970  0.99975646  1
