# generated using pymatgen
data_Hf2Ta2C3N
_symmetry_space_group_name_H-M   'P 1'
_cell_length_a   11.09815257
_cell_length_b   11.09928961
_cell_length_c   11.09791545
_cell_angle_alpha   33.60025857
_cell_angle_beta   33.68154750
_cell_angle_gamma   33.66545507
_symmetry_Int_Tables_number   1
_chemical_formula_structural   Hf2Ta2C3N
_chemical_formula_sum   'Hf8 Ta8 C12 N4'
_cell_volume   373.91976378
_cell_formula_units_Z   4
loop_
 _symmetry_equiv_pos_site_id
 _symmetry_equiv_pos_as_xyz
  1  'x, y, z'
loop_
 _atom_site_type_symbol
 _atom_site_label
 _atom_site_symmetry_multiplicity
 _atom_site_fract_x
 _atom_site_fract_y
 _atom_site_fract_z
 _atom_site_occupancy
  C  C0  1  0.12489721  0.12377517  0.12496381  1
  C  C1  1  0.12020448  0.62951107  0.13033982  1
  C  C2  1  0.62963861  0.12397187  0.12460747  1
  C  C3  1  0.12153549  0.13030038  0.62853165  1
  C  C4  1  0.87562671  0.37655618  0.87464941  1
  C  C5  1  0.11964083  0.62623091  0.62596938  1
  C  C6  1  0.37642225  0.88237349  0.86758508  1
  C  C7  1  0.38065798  0.37247392  0.87195438  1
  C  C8  1  0.62727146  0.62499596  0.62511511  1
  C  C9  1  0.87261774  0.87616968  0.37573854  1
  C  C10  1  0.87399893  0.36674218  0.38314106  1
  C  C11  1  0.37041721  0.87540540  0.37554595  1
  Hf  Hf12  1  0.24920955  0.25175441  0.25215404  1
  Hf  Hf13  1  0.25020889  0.74833796  0.24930747  1
  Hf  Hf14  1  0.74689521  0.75070767  0.25146135  1
  Hf  Hf15  1  0.00101600  0.49859379  0.00034563  1
  Hf  Hf16  1  0.24977982  0.75142705  0.75140614  1
  Hf  Hf17  1  0.49678185  0.00269445  0.99864208  1
  Hf  Hf18  1  0.50239938  0.49960932  0.00162603  1
  Hf  Hf19  1  0.49994409  0.49563462  0.50229868  1
  N  N20  1  0.62851943  0.62074147  0.12161110  1
  N  N21  1  0.87373393  0.88012601  0.86952314  1
  N  N22  1  0.62526901  0.12382740  0.62078836  1
  N  N23  1  0.37813630  0.36806197  0.38161638  1
  Ta  Ta24  1  0.76859249  0.23571561  0.24268330  1
  Ta  Ta25  1  0.99916779  0.00189371  0.00256101  1
  Ta  Ta26  1  0.23343444  0.25312330  0.76451901  1
  Ta  Ta27  1  0.74796615  0.25836200  0.74949050  1
  Ta  Ta28  1  0.75345867  0.75099629  0.73938169  1
  Ta  Ta29  1  0.01144125  0.99827279  0.48591187  1
  Ta  Ta30  1  0.98815031  0.50807263  0.50499342  1
  Ta  Ta31  1  0.50296655  0.99354133  0.50153714  1
