# generated using pymatgen
data_Hf2Ta2C3N
_symmetry_space_group_name_H-M   'P 1'
_cell_length_a   10.15189196
_cell_length_b   9.63368719
_cell_length_c   8.48659817
_cell_angle_alpha   67.73126307
_cell_angle_beta   61.42034102
_cell_angle_gamma   50.77993861
_symmetry_Int_Tables_number   1
_chemical_formula_structural   Hf2Ta2C3N
_chemical_formula_sum   'Hf12 Ta12 C18 N6'
_cell_volume   561.08513537
_cell_formula_units_Z   6
loop_
 _symmetry_equiv_pos_site_id
 _symmetry_equiv_pos_as_xyz
  1  'x, y, z'
loop_
 _atom_site_type_symbol
 _atom_site_label
 _atom_site_symmetry_multiplicity
 _atom_site_fract_x
 _atom_site_fract_y
 _atom_site_fract_z
 _atom_site_occupancy
  C  C0  1  0.41722315  0.75071240  0.58473066  1
  C  C1  1  0.37881546  0.12153714  0.37759128  1
  C  C2  1  0.62100555  0.87646727  0.62667492  1
  C  C3  1  0.83232654  0.99817630  0.67392244  1
  C  C4  1  0.04449003  0.12126886  0.71046821  1
  C  C5  1  0.32891330  0.50353132  0.16867742  1
  C  C6  1  0.29232310  0.87437337  0.96238753  1
  C  C7  1  0.58287273  0.24778443  0.41668739  1
  C  C8  1  0.71269025  0.11680772  0.04550343  1
  C  C9  1  0.00318656  0.50066521  0.49084103  1
  C  C10  1  0.96037655  0.87240473  0.28701590  1
  C  C11  1  0.20977708  0.62465634  0.53755513  1
  C  C12  1  0.24969361  0.25020893  0.75018548  1
  C  C13  1  0.45177205  0.38182420  0.79367817  1
  C  C14  1  0.65820681  0.50844599  0.83436358  1
  C  C15  1  0.91957031  0.24949449  0.08395779  1
  C  C16  1  0.87015103  0.62905949  0.88143757  1
  C  C17  1  0.12227914  0.37716157  0.12212509  1
  Hf  Hf18  1  0.08630084  0.24881129  0.41751544  1
  Hf  Hf19  1  0.49826054  0.49873763  0.50057503  1
  Hf  Hf20  1  0.70868147  0.62639657  0.53981725  1
  Hf  Hf21  1  0.95608506  0.37942655  0.78858064  1
  Hf  Hf22  1  0.45932767  0.87368446  0.29451096  1
  Hf  Hf23  1  0.41249787  0.25543520  0.08570970  1
  Hf  Hf24  1  0.62350012  0.37608985  0.12594588  1
  Hf  Hf25  1  0.87513460  0.12056804  0.37875843  1
  Hf  Hf26  1  0.91620942  0.74814424  0.58501486  1
  Hf  Hf27  1  0.12499340  0.87106259  0.63093293  1
  Hf  Hf28  1  0.54035453  0.12533063  0.71175065  1
  Hf  Hf29  1  0.74914600  0.25055009  0.75536077  1
  N  N30  1  0.54122699  0.62937671  0.20571543  1
  N  N31  1  0.50405311  0.99525905  0.00351762  1
  N  N32  1  0.79371655  0.37655190  0.45131510  1
  N  N33  1  0.75095742  0.74655973  0.24590329  1
  N  N34  1  0.17183630  0.99720135  0.33002805  1
  N  N35  1  0.07844382  0.75172006  0.91979816  1
  Ta  Ta36  1  0.04400868  0.62392282  0.20904261  1
  Ta  Ta37  1  0.29265708  0.37258625  0.46146641  1
  Ta  Ta38  1  0.00211771  0.00822430  0.00145293  1
  Ta  Ta39  1  0.24122510  0.74683641  0.24796217  1
  Ta  Ta40  1  0.20496257  0.13022346  0.03336310  1
  Ta  Ta41  1  0.16716671  0.49393741  0.82877437  1
  Ta  Ta42  1  0.37537987  0.62868263  0.87432256  1
  Ta  Ta43  1  0.66873450  0.00182545  0.33610869  1
  Ta  Ta44  1  0.84898258  0.48962123  0.15292888  1
  Ta  Ta45  1  0.33091456  0.00224925  0.67172596  1
  Ta  Ta46  1  0.58149226  0.75076416  0.90954664  1
  Ta  Ta47  1  0.79595944  0.87564095  0.95475247  1
