# generated using pymatgen
data_Hf2Ta2C3N
_symmetry_space_group_name_H-M   'P 1'
_cell_length_a   5.56266010
_cell_length_b   10.64300575
_cell_length_c   12.83734958
_cell_angle_alpha   98.62129781
_cell_angle_beta   89.92576569
_cell_angle_gamma   95.10828508
_symmetry_Int_Tables_number   1
_chemical_formula_structural   Hf2Ta2C3N
_chemical_formula_sum   'Hf16 Ta16 C24 N8'
_cell_volume   748.38686076
_cell_formula_units_Z   8
loop_
 _symmetry_equiv_pos_site_id
 _symmetry_equiv_pos_as_xyz
  1  'x, y, z'
loop_
 _atom_site_type_symbol
 _atom_site_label
 _atom_site_symmetry_multiplicity
 _atom_site_fract_x
 _atom_site_fract_y
 _atom_site_fract_z
 _atom_site_occupancy
  C  C0  1  0.56277686  0.37284783  0.17243740  1
  C  C1  1  0.69437460  0.12559750  0.01979488  1
  C  C2  1  0.55967014  0.37165676  0.42097564  1
  C  C3  1  0.55928365  0.37478297  0.67462479  1
  C  C4  1  0.68682713  0.12984276  0.51755864  1
  C  C5  1  0.81104831  0.87556164  0.35683803  1
  C  C6  1  0.56068067  0.37534118  0.92043443  1
  C  C7  1  0.68519923  0.12813241  0.76337255  1
  C  C8  1  0.80622453  0.87402732  0.61083488  1
  C  C9  1  0.81842076  0.87345829  0.85944608  1
  C  C10  1  0.06348316  0.37136055  0.29675599  1
  C  C11  1  0.30961540  0.87547399  0.98575780  1
  C  C12  1  0.06464446  0.37481071  0.54791749  1
  C  C13  1  0.18754144  0.13084139  0.39070009  1
  C  C14  1  0.31098214  0.87628263  0.22989340  1
  C  C15  1  0.19109946  0.12983585  0.64139518  1
  C  C16  1  0.31514120  0.87664482  0.48597523  1
  C  C17  1  0.43421881  0.62073893  0.32601144  1
  C  C18  1  0.18729881  0.12538531  0.89121663  1
  C  C19  1  0.31939876  0.87344274  0.73371699  1
  C  C20  1  0.43557045  0.62330657  0.82590393  1
  C  C21  1  0.93689164  0.62533871  0.95230322  1
  C  C22  1  0.94279001  0.62223389  0.45344954  1
  C  C23  1  0.94060848  0.62363462  0.70594470  1
  Hf  Hf24  1  0.87498620  0.24998641  0.90461547  1
  Hf  Hf25  1  0.00060317  0.00246201  0.74910733  1
  Hf  Hf26  1  0.00483893  0.00263170  0.24992143  1
  Hf  Hf27  1  0.99900160  0.00188472  0.50115955  1
  Hf  Hf28  1  0.12543187  0.75031278  0.34264913  1
  Hf  Hf29  1  0.12456027  0.74926685  0.59475973  1
  Hf  Hf30  1  0.37622000  0.24761072  0.03160604  1
  Hf  Hf31  1  0.50002997  0.00075019  0.87568588  1
  Hf  Hf32  1  0.62608523  0.74995108  0.96775333  1
  Hf  Hf33  1  0.50039231  0.00398929  0.37457587  1
  Hf  Hf34  1  0.61745947  0.74985465  0.21858094  1
  Hf  Hf35  1  0.75059620  0.49913557  0.06176547  1
  Hf  Hf36  1  0.62384448  0.74754573  0.46856730  1
  Hf  Hf37  1  0.75353145  0.49792776  0.31255720  1
  Hf  Hf38  1  0.74808761  0.49757534  0.56349116  1
  Hf  Hf39  1  0.24903700  0.50095424  0.93650507  1
  N  N40  1  0.68685233  0.12771784  0.26264716  1
  N  N41  1  0.81319703  0.87626142  0.10868709  1
  N  N42  1  0.06066097  0.37514187  0.04853575  1
  N  N43  1  0.19182692  0.12344044  0.14010205  1
  N  N44  1  0.42669683  0.62402842  0.07888072  1
  N  N45  1  0.06167058  0.37714020  0.79568186  1
  N  N46  1  0.43363907  0.62140527  0.58082053  1
  N  N47  1  0.94274665  0.62307347  0.20023473  1
  Ta  Ta48  1  0.85946288  0.25476279  0.16005226  1
  Ta  Ta49  1  0.99474328  0.99853363  0.99334362  1
  Ta  Ta50  1  0.13777625  0.74856849  0.84398221  1
  Ta  Ta51  1  0.88557342  0.25567322  0.41091611  1
  Ta  Ta52  1  0.11747742  0.75619993  0.09077913  1
  Ta  Ta53  1  0.87112381  0.25128378  0.65420760  1
  Ta  Ta54  1  0.38409216  0.24739663  0.78092544  1
  Ta  Ta55  1  0.63502430  0.75389079  0.72557763  1
  Ta  Ta56  1  0.37685065  0.25639401  0.28440902  1
  Ta  Ta57  1  0.50269128  0.99016537  0.11867648  1
  Ta  Ta58  1  0.73567417  0.50488005  0.81372308  1
  Ta  Ta59  1  0.37202987  0.25166837  0.53350675  1
  Ta  Ta60  1  0.49943445  0.99938357  0.62577724  1
  Ta  Ta61  1  0.24525616  0.49644872  0.68651956  1
  Ta  Ta62  1  0.26349414  0.48964116  0.19222373  1
  Ta  Ta63  1  0.24350956  0.49448216  0.43323038  1
