# generated using pymatgen
data_HfTaCN
_symmetry_space_group_name_H-M   'P 1'
_cell_length_a   9.57869140
_cell_length_b   9.57968398
_cell_length_c   3.19849586
_cell_angle_alpha   90.00000000
_cell_angle_beta   90.00000000
_cell_angle_gamma   141.01920445
_symmetry_Int_Tables_number   1
_chemical_formula_structural   HfTaCN
_chemical_formula_sum   'Hf4 Ta4 C4 N4'
_cell_volume   184.62696849
_cell_formula_units_Z   4
loop_
 _symmetry_equiv_pos_site_id
 _symmetry_equiv_pos_as_xyz
  1  'x, y, z'
loop_
 _atom_site_type_symbol
 _atom_site_label
 _atom_site_symmetry_multiplicity
 _atom_site_fract_x
 _atom_site_fract_y
 _atom_site_fract_z
 _atom_site_occupancy
  C  C0  1  0.49500323  0.99887334  0.50000000  1
  C  C1  1  0.24911969  0.24868435  0.50000000  1
  C  C2  1  0.87996876  0.12771653  0.00000000  1
  C  C3  1  0.75464328  0.75256245  0.50000000  1
  Hf  Hf4  1  0.62760729  0.87940586  0.50000000  1
  Hf  Hf5  1  0.49872576  0.50001083  0.00000000  1
  Hf  Hf6  1  0.88130567  0.63197226  0.50000000  1
  Hf  Hf7  1  0.74562199  0.24406261  0.00000000  1
  N  N8  1  0.36636266  0.62119216  0.00000000  1
  N  N9  1  0.12119694  0.87010191  0.00000000  1
  N  N10  1  0.00531882  0.50256681  0.50000000  1
  N  N11  1  0.62726857  0.37792778  0.00000000  1
  Ta  Ta12  1  0.36381876  0.11513877  0.50000000  1
  Ta  Ta13  1  0.26202747  0.76296639  0.00000000  1
  Ta  Ta14  1  0.11867088  0.36098466  0.50000000  1
  Ta  Ta15  1  0.00334025  0.00583326  0.00000000  1
