# generated using pymatgen
data_HfTaCN
_symmetry_space_group_name_H-M   'P 1'
_cell_length_a   4.49757494
_cell_length_b   6.41146521
_cell_length_c   12.81807331
_cell_angle_alpha   89.95744827
_cell_angle_beta   90.00000000
_cell_angle_gamma   90.00000000
_symmetry_Int_Tables_number   1
_chemical_formula_structural   HfTaCN
_chemical_formula_sum   'Hf8 Ta8 C8 N8'
_cell_volume   369.62244029
_cell_formula_units_Z   8
loop_
 _symmetry_equiv_pos_site_id
 _symmetry_equiv_pos_as_xyz
  1  'x, y, z'
loop_
 _atom_site_type_symbol
 _atom_site_label
 _atom_site_symmetry_multiplicity
 _atom_site_fract_x
 _atom_site_fract_y
 _atom_site_fract_z
 _atom_site_occupancy
  C  C0  1  0.50000000  0.49796428  0.00172269  1
  C  C1  1  0.00000000  0.75139687  0.37393683  1
  C  C2  1  0.50000000  0.49872423  0.25029219  1
  C  C3  1  0.00000000  0.74959441  0.62340989  1
  C  C4  1  0.50000000  0.49644614  0.49909129  1
  C  C5  1  0.00000000  0.74856918  0.87637986  1
  C  C6  1  0.00000000  0.24928876  0.87649358  1
  C  C7  1  0.50000000  0.49683024  0.74876960  1
  Hf  Hf8  1  0.00000000  0.99858711  0.99864692  1
  Hf  Hf9  1  0.50000000  0.74437047  0.37427416  1
  Hf  Hf10  1  0.00000000  0.99652792  0.25128191  1
  Hf  Hf11  1  0.50000000  0.74370965  0.62429512  1
  Hf  Hf12  1  0.00000000  0.99598117  0.49919677  1
  Hf  Hf13  1  0.50000000  0.25458306  0.87574679  1
  Hf  Hf14  1  0.50000000  0.73975982  0.87552163  1
  Hf  Hf15  1  0.00000000  0.99738280  0.75123763  1
  N  N16  1  0.00000000  0.74962631  0.12677003  1
  N  N17  1  0.00000000  0.24708238  0.12667888  1
  N  N18  1  0.50000000  0.99689583  0.00699664  1
  N  N19  1  0.00000000  0.24780378  0.37315015  1
  N  N20  1  0.50000000  0.00250874  0.24718638  1
  N  N21  1  0.00000000  0.24905330  0.62318221  1
  N  N22  1  0.50000000  0.00986817  0.49775532  1
  N  N23  1  0.50000000  0.00366251  0.74800779  1
  Ta  Ta24  1  0.50000000  0.26612379  0.12650264  1
  Ta  Ta25  1  0.50000000  0.72786875  0.12622914  1
  Ta  Ta26  1  0.00000000  0.49931403  0.99869143  1
  Ta  Ta27  1  0.50000000  0.26683026  0.37325905  1
  Ta  Ta28  1  0.00000000  0.50222368  0.25313740  1
  Ta  Ta29  1  0.50000000  0.26608320  0.62398332  1
  Ta  Ta30  1  0.00000000  0.50470804  0.49704175  1
  Ta  Ta31  1  0.00000000  0.50063114  0.75113100  1
