# generated using pymatgen
data_Hf2Ta2CN3
_symmetry_space_group_name_H-M   'P 1'
_cell_length_a   10.05718561
_cell_length_b   9.56064003
_cell_length_c   8.43999335
_cell_angle_alpha   67.76870192
_cell_angle_beta   61.26797109
_cell_angle_gamma   50.69251289
_symmetry_Int_Tables_number   1
_chemical_formula_structural   Hf2Ta2CN3
_chemical_formula_sum   'Hf12 Ta12 C6 N18'
_cell_volume   547.34771328
_cell_formula_units_Z   6
loop_
 _symmetry_equiv_pos_site_id
 _symmetry_equiv_pos_as_xyz
  1  'x, y, z'
loop_
 _atom_site_type_symbol
 _atom_site_label
 _atom_site_symmetry_multiplicity
 _atom_site_fract_x
 _atom_site_fract_y
 _atom_site_fract_z
 _atom_site_occupancy
  N  N0  1  0.41487404  0.75372666  0.59311356  1
  N  N1  1  0.38253578  0.12366692  0.36704652  1
  N  N2  1  0.62329512  0.87711121  0.62667436  1
  N  N3  1  0.83131575  0.99975896  0.66457977  1
  N  N4  1  0.04161854  0.12303434  0.71462485  1
  N  N5  1  0.33098555  0.49615367  0.17843984  1
  N  N6  1  0.29111381  0.87717232  0.94478597  1
  N  N7  1  0.58292878  0.24808983  0.41125952  1
  N  N8  1  0.71098901  0.12316760  0.04174601  1
  N  N9  1  0.00111732  0.50141291  0.49708644  1
  N  N10  1  0.96592812  0.86752207  0.29397476  1
  N  N11  1  0.20544461  0.62185215  0.54156113  1
  N  N12  1  0.24099648  0.26286402  0.76588780  1
  N  N13  1  0.45859675  0.37451441  0.79288832  1
  N  N14  1  0.66453881  0.50159045  0.83520309  1
  N  N15  1  0.91862266  0.24560310  0.07910242  1
  N  N16  1  0.87689835  0.62271945  0.87187121  1
  N  N17  1  0.12494124  0.37532450  0.12165415  1
  Hf  Hf18  1  0.08391824  0.25022022  0.41229329  1
  Hf  Hf19  1  0.49794029  0.49982063  0.49836989  1
  Hf  Hf20  1  0.70566088  0.62717996  0.54393964  1
  Hf  Hf21  1  0.96791212  0.36729340  0.79233594  1
  Hf  Hf22  1  0.46034795  0.87359972  0.29083128  1
  Hf  Hf23  1  0.41735789  0.24759377  0.08237274  1
  Hf  Hf24  1  0.61994608  0.38097018  0.12475597  1
  Hf  Hf25  1  0.87708735  0.12635661  0.36852058  1
  Hf  Hf26  1  0.91852832  0.74840585  0.58253103  1
  Hf  Hf27  1  0.12821428  0.87579723  0.62353093  1
  Hf  Hf28  1  0.53422675  0.12713693  0.70649344  1
  Hf  Hf29  1  0.75119849  0.24998493  0.74584258  1
  C  C30  1  0.54200366  0.62495251  0.20755202  1
  C  C31  1  0.50428128  0.99865635  0.99779448  1
  C  C32  1  0.79117522  0.37660635  0.45585714  1
  C  C33  1  0.75405564  0.74855198  0.25042964  1
  C  C34  1  0.16686016  0.00013219  0.33122988  1
  C  C35  1  0.07601858  0.75525655  0.91389567  1
  Ta  Ta36  1  0.04228885  0.63333692  0.19827439  1
  Ta  Ta37  1  0.28959439  0.36136062  0.47195102  1
  Ta  Ta38  1  0.00238300  0.98074972  0.00596564  1
  Ta  Ta39  1  0.25832630  0.75659057  0.23855976  1
  Ta  Ta40  1  0.22239697  0.10780756  0.04231476  1
  Ta  Ta41  1  0.16746576  0.51043186  0.84364665  1
  Ta  Ta42  1  0.36181863  0.62579461  0.88385176  1
  Ta  Ta43  1  0.67540217  0.99056624  0.32621880  1
  Ta  Ta44  1  0.82406937  0.51160444  0.17204332  1
  Ta  Ta45  1  0.33103499  0.02109647  0.65582104  1
  Ta  Ta46  1  0.57360290  0.75640715  0.92764876  1
  Ta  Ta47  1  0.78814274  0.87045389  0.96362822  1
