# generated using pymatgen
data_Hf2Ta2CN3
_symmetry_space_group_name_H-M   'P 1'
_cell_length_a   5.51931835
_cell_length_b   10.53643598
_cell_length_c   12.73599054
_cell_angle_alpha   98.60357467
_cell_angle_beta   89.92692936
_cell_angle_gamma   95.11740432
_symmetry_Int_Tables_number   1
_chemical_formula_structural   Hf2Ta2CN3
_chemical_formula_sum   'Hf16 Ta16 C8 N24'
_cell_volume   729.33985075
_cell_formula_units_Z   8
loop_
 _symmetry_equiv_pos_site_id
 _symmetry_equiv_pos_as_xyz
  1  'x, y, z'
loop_
 _atom_site_type_symbol
 _atom_site_label
 _atom_site_symmetry_multiplicity
 _atom_site_fract_x
 _atom_site_fract_y
 _atom_site_fract_z
 _atom_site_occupancy
  N  N0  1  0.56076105  0.37215056  0.17352247  1
  N  N1  1  0.69197038  0.12188731  0.01386215  1
  N  N2  1  0.56826484  0.37083992  0.42062911  1
  N  N3  1  0.55711880  0.37366168  0.67004447  1
  N  N4  1  0.67812905  0.13011854  0.51847648  1
  N  N5  1  0.81481526  0.87714309  0.36394284  1
  N  N6  1  0.56260181  0.37367488  0.91700205  1
  N  N7  1  0.67810092  0.12959519  0.76902932  1
  N  N8  1  0.82025817  0.87461892  0.60809854  1
  N  N9  1  0.81893751  0.87239158  0.85774302  1
  N  N10  1  0.06374048  0.37844918  0.29833578  1
  N  N11  1  0.30735986  0.87663176  0.98041516  1
  N  N12  1  0.05401064  0.37340028  0.55152918  1
  N  N13  1  0.18988288  0.12050802  0.39110519  1
  N  N14  1  0.31339293  0.87445988  0.23505135  1
  N  N15  1  0.20092123  0.12552250  0.63721261  1
  N  N16  1  0.30985899  0.87669257  0.48615583  1
  N  N17  1  0.43685973  0.62237427  0.32962232  1
  N  N18  1  0.19237929  0.12333531  0.88968956  1
  N  N19  1  0.30346203  0.87776422  0.73757685  1
  N  N20  1  0.45099395  0.62286887  0.82613504  1
  N  N21  1  0.93973987  0.62895833  0.95038663  1
  N  N22  1  0.93664168  0.62240980  0.45373388  1
  N  N23  1  0.92197522  0.62688573  0.70021211  1
  Hf  Hf24  1  0.87976808  0.25269478  0.90658594  1
  Hf  Hf25  1  0.99195659  0.00257104  0.74898895  1
  Hf  Hf26  1  0.00111327  0.00249140  0.24913958  1
  Hf  Hf27  1  0.00238762  0.00720955  0.50269536  1
  Hf  Hf28  1  0.12689955  0.74488944  0.34261729  1
  Hf  Hf29  1  0.12635932  0.75035328  0.59592669  1
  Hf  Hf30  1  0.37600312  0.25013778  0.03385379  1
  Hf  Hf31  1  0.50314486  0.99992117  0.87080596  1
  Hf  Hf32  1  0.61738011  0.75124706  0.96831990  1
  Hf  Hf33  1  0.50162773  0.00483909  0.37684911  1
  Hf  Hf34  1  0.63268155  0.75028001  0.21640034  1
  Hf  Hf35  1  0.75412761  0.50247188  0.06250773  1
  Hf  Hf36  1  0.62198759  0.75005210  0.47298948  1
  Hf  Hf37  1  0.74503184  0.49657933  0.31061633  1
  Hf  Hf38  1  0.74778679  0.49625502  0.56334745  1
  Hf  Hf39  1  0.25052370  0.49797977  0.93607787  1
  C  C40  1  0.68545901  0.13038089  0.26710226  1
  C  C41  1  0.81204938  0.87700209  0.10801821  1
  C  C42  1  0.06348448  0.37413830  0.04767065  1
  C  C43  1  0.19529535  0.12526550  0.14204524  1
  C  C44  1  0.43142642  0.62531772  0.07760504  1
  C  C45  1  0.06445149  0.37444606  0.79405846  1
  C  C46  1  0.43478055  0.62186775  0.57861613  1
  C  C47  1  0.93787514  0.62370818  0.20399981  1
  Ta  Ta48  1  0.88818001  0.24375488  0.15513193  1
  Ta  Ta49  1  0.00442427  0.99979579  0.00882354  1
  Ta  Ta50  1  0.12544944  0.73928755  0.83560038  1
  Ta  Ta51  1  0.88932872  0.24502803  0.40236888  1
  Ta  Ta52  1  0.12311237  0.74942915  0.09625594  1
  Ta  Ta53  1  0.87450961  0.24458236  0.66215192  1
  Ta  Ta54  1  0.36149770  0.25560151  0.77365036  1
  Ta  Ta55  1  0.60574742  0.74860070  0.71128125  1
  Ta  Ta56  1  0.36253297  0.24581512  0.28393326  1
  Ta  Ta57  1  0.50521028  0.00807576  0.13016298  1
  Ta  Ta58  1  0.77016190  0.49600085  0.80885496  1
  Ta  Ta59  1  0.35744889  0.25694746  0.52522434  1
  Ta  Ta60  1  0.51324570  0.99530882  0.63014111  1
  Ta  Ta61  1  0.24425184  0.50761624  0.69207475  1
  Ta  Ta62  1  0.24105793  0.50430164  0.18164112  1
  Ta  Ta63  1  0.25806325  0.50141260  0.44635374  1
