# generated using pymatgen
data_TiAl3N4
_symmetry_space_group_name_H-M   'P 1'
_cell_length_a   7.44026893
_cell_length_b   7.43997436
_cell_length_c   6.41082345
_cell_angle_alpha   89.66314816
_cell_angle_beta   90.15517316
_cell_angle_gamma   97.93462129
_symmetry_Int_Tables_number   1
_chemical_formula_structural   TiAl3N4
_chemical_formula_sum   'Ti4 Al12 N16'
_cell_volume   351.46956250
_cell_formula_units_Z   4
loop_
 _symmetry_equiv_pos_site_id
 _symmetry_equiv_pos_as_xyz
  1  'x, y, z'
loop_
 _atom_site_type_symbol
 _atom_site_label
 _atom_site_symmetry_multiplicity
 _atom_site_fract_x
 _atom_site_fract_y
 _atom_site_fract_z
 _atom_site_occupancy
  Al  Al0  1  0.33444808  0.65898276  0.49739153  1
  Al  Al1  1  0.83412658  0.17470584  0.50037615  1
  Al  Al2  1  0.59585611  0.42206314  0.24829893  1
  Al  Al3  1  0.83354783  0.17692257  0.00157479  1
  Al  Al4  1  0.59634837  0.42267206  0.75089735  1
  Al  Al5  1  0.07983346  0.92753716  0.25532271  1
  Al  Al6  1  0.41993709  0.08440643  0.49663432  1
  Al  Al7  1  0.66273649  0.84143288  0.25202870  1
  Al  Al8  1  0.41963826  0.08916127  0.00499760  1
  Al  Al9  1  0.65626030  0.84485585  0.74712434  1
  Al  Al10  1  0.17438716  0.32477459  0.25202457  1
  Al  Al11  1  0.17330419  0.32544106  0.74844969  1
  N  N12  1  0.15045681  0.45639961  0.49812088  1
  N  N13  1  0.63597535  0.97998504  0.49766129  1
  N  N14  1  0.39591417  0.22280600  0.25220471  1
  N  N15  1  0.15482221  0.44922972  0.00069675  1
  N  N16  1  0.63252469  0.97493731  0.00062199  1
  N  N17  1  0.39058680  0.21437128  0.74804164  1
  N  N18  1  0.88135916  0.73928931  0.25479646  1
  N  N19  1  0.85876705  0.72777857  0.74205558  1
  N  N20  1  0.22593938  0.87908981  0.48778132  1
  N  N21  1  0.73049059  0.39584092  0.50016379  1
  N  N22  1  0.47823814  0.63614932  0.25704146  1
  N  N23  1  0.21626918  0.89136578  0.01713721  1
  N  N24  1  0.72775435  0.39484609  0.00026108  1
  N  N25  1  0.47304950  0.63642890  0.74064495  1
  N  N26  1  0.96983976  0.14124686  0.25309651  1
  N  N27  1  0.96398504  0.14311585  0.75151363  1
  Ti  Ti28  1  0.33606483  0.66649487  0.99698244  1
  Ti  Ti29  1  0.09167684  0.91919588  0.74971624  1
  Ti  Ti30  1  0.94076772  0.60877935  0.50468723  1
  Ti  Ti31  1  0.96509449  0.62969398  0.99165419  1
