# generated using pymatgen
data_TiAl3N4
_symmetry_space_group_name_H-M   'P 1'
_cell_length_a   5.89653047
_cell_length_b   5.52108650
_cell_length_c   10.88425437
_cell_angle_alpha   90.50697145
_cell_angle_beta   95.40057550
_cell_angle_gamma   90.29571876
_symmetry_Int_Tables_number   1
_chemical_formula_structural   TiAl3N4
_chemical_formula_sum   'Ti4 Al12 N16'
_cell_volume   352.74656323
_cell_formula_units_Z   4
loop_
 _symmetry_equiv_pos_site_id
 _symmetry_equiv_pos_as_xyz
  1  'x, y, z'
loop_
 _atom_site_type_symbol
 _atom_site_label
 _atom_site_symmetry_multiplicity
 _atom_site_fract_x
 _atom_site_fract_y
 _atom_site_fract_z
 _atom_site_occupancy
  Al  Al0  1  0.38669199  0.16936507  0.62662125  1
  Al  Al1  1  0.62189046  0.16411041  0.37981757  1
  Al  Al2  1  0.85944943  0.16455793  0.13208344  1
  Al  Al3  1  0.26212952  0.66265730  0.74575616  1
  Al  Al4  1  0.49965522  0.66450706  0.50185318  1
  Al  Al5  1  0.88383165  0.33615637  0.62025482  1
  Al  Al6  1  0.12899705  0.33029246  0.37896720  1
  Al  Al7  1  0.35896436  0.32112054  0.12987593  1
  Al  Al8  1  0.75671400  0.83824069  0.74370695  1
  Al  Al9  1  0.00579655  0.83558485  0.50228308  1
  Al  Al10  1  0.24552940  0.83544564  0.25517182  1
  Al  Al11  1  0.49664162  0.83516552  0.99780760  1
  N  N12  1  0.85688884  0.16112396  0.76394259  1
  N  N13  1  0.09410022  0.16652711  0.52712438  1
  N  N14  1  0.33472383  0.16418355  0.28353775  1
  N  N15  1  0.56957630  0.15863607  0.04157756  1
  N  N16  1  0.96770388  0.66608046  0.64980541  1
  N  N17  1  0.20923151  0.66481910  0.40345422  1
  N  N18  1  0.44039817  0.66286133  0.15101869  1
  N  N19  1  0.70916488  0.70906925  0.89888484  1
  N  N20  1  0.36135765  0.34228570  0.77454965  1
  N  N21  1  0.58962490  0.33632638  0.52714583  1
  N  N22  1  0.83506353  0.32250012  0.28614581  1
  N  N23  1  0.07054570  0.30913552  0.03799998  1
  N  N24  1  0.46531088  0.83635577  0.64899313  1
  N  N25  1  0.70810633  0.83444458  0.40712249  1
  N  N26  1  0.95296406  0.84042117  0.16340122  1
  N  N27  1  0.21907044  0.82490207  0.89541595  1
  Ti  Ti28  1  0.14861263  0.17732277  0.87382124  1
  Ti  Ti29  1  0.74312948  0.65779909  0.25014175  1
  Ti  Ti30  1  0.00542470  0.66645089  0.00151378  1
  Ti  Ti31  1  0.71271081  0.34155127  0.90020475  1
