# generated using pymatgen
data_Ti3Al5N8
_symmetry_space_group_name_H-M   'P 1'
_cell_length_a   6.77883113
_cell_length_b   6.81088167
_cell_length_c   12.62791891
_cell_angle_alpha   90.25326215
_cell_angle_beta   89.95716296
_cell_angle_gamma   119.87635088
_symmetry_Int_Tables_number   1
_chemical_formula_structural   Ti3Al5N8
_chemical_formula_sum   'Ti9 Al15 N24'
_cell_volume   505.53995304
_cell_formula_units_Z   3
loop_
 _symmetry_equiv_pos_site_id
 _symmetry_equiv_pos_as_xyz
  1  'x, y, z'
loop_
 _atom_site_type_symbol
 _atom_site_label
 _atom_site_symmetry_multiplicity
 _atom_site_fract_x
 _atom_site_fract_y
 _atom_site_fract_z
 _atom_site_occupancy
  Al  Al0  1  0.33483626  0.17482688  0.98011687  1
  Al  Al1  1  0.83704382  0.17220049  0.97827854  1
  Al  Al2  1  0.83417160  0.66664960  0.97760066  1
  Al  Al3  1  0.83370309  0.16559653  0.31355153  1
  Al  Al4  1  0.33204371  0.66207756  0.31547370  1
  Al  Al5  1  0.83052534  0.66256003  0.31553875  1
  Al  Al6  1  0.33264317  0.16828282  0.64332861  1
  Al  Al7  1  0.83627683  0.16854330  0.64332554  1
  Al  Al8  1  0.16234062  0.32604804  0.81104465  1
  Al  Al9  1  0.16309036  0.33222480  0.14406347  1
  Al  Al10  1  0.66833130  0.33335508  0.14499372  1
  Al  Al11  1  0.16635312  0.33234303  0.48010240  1
  Al  Al12  1  0.66701864  0.33175214  0.48031101  1
  Al  Al13  1  0.16398327  0.82974242  0.47893235  1
  Al  Al14  1  0.66726685  0.83288062  0.47792063  1
  N  N15  1  0.34087481  0.18482521  0.14289218  1
  N  N16  1  0.83700627  0.17679269  0.14866697  1
  N  N17  1  0.32864307  0.65441683  0.15178452  1
  N  N18  1  0.82860713  0.65743569  0.14812299  1
  N  N19  1  0.33291709  0.16491420  0.47912440  1
  N  N20  1  0.83393340  0.16652163  0.47606944  1
  N  N21  1  0.33249901  0.66329202  0.47504456  1
  N  N22  1  0.82963111  0.66139975  0.47548930  1
  N  N23  1  0.32721013  0.17906404  0.81118037  1
  N  N24  1  0.85009543  0.17688036  0.81097734  1
  N  N25  1  0.31645972  0.63553698  0.81229495  1
  N  N26  1  0.83129006  0.66233131  0.82094128  1
  N  N27  1  0.16143379  0.32766175  0.98269004  1
  N  N28  1  0.66888660  0.33510146  0.98398884  1
  N  N29  1  0.16274259  0.84837930  0.98103743  1
  N  N30  1  0.68406335  0.84578138  0.98128619  1
  N  N31  1  0.16319769  0.33235658  0.31241796  1
  N  N32  1  0.67193766  0.33352434  0.31241655  1
  N  N33  1  0.15995313  0.82151897  0.31749850  1
  N  N34  1  0.66773086  0.83320987  0.31576590  1
  N  N35  1  0.16228266  0.32443930  0.64069588  1
  N  N36  1  0.66117968  0.32072702  0.63986351  1
  N  N37  1  0.17120437  0.84526483  0.64012829  1
  N  N38  1  0.67444543  0.84703278  0.63938215  1
  Ti  Ti39  1  0.33805985  0.67822834  0.97639842  1
  Ti  Ti40  1  0.33258769  0.16109176  0.30932748  1
  Ti  Ti41  1  0.33803416  0.67505754  0.65236132  1
  Ti  Ti42  1  0.83464198  0.67100939  0.65395893  1
  Ti  Ti43  1  0.66273073  0.32636893  0.80847412  1
  Ti  Ti44  1  0.17542850  0.83517457  0.81392097  1
  Ti  Ti45  1  0.65879463  0.83318318  0.81298400  1
  Ti  Ti46  1  0.17003732  0.83312541  0.14477009  1
  Ti  Ti47  1  0.66183211  0.82926923  0.14346272  1
