# generated using pymatgen
data_Ti3Al5N8
_symmetry_space_group_name_H-M   'P 1'
_cell_length_a   7.34471303
_cell_length_b   8.73368147
_cell_length_c   9.96220288
_cell_angle_alpha   63.60454470
_cell_angle_beta   65.71445515
_cell_angle_gamma   75.02003016
_symmetry_Int_Tables_number   1
_chemical_formula_structural   Ti3Al5N8
_chemical_formula_sum   'Ti9 Al15 N24'
_cell_volume   519.51886492
_cell_formula_units_Z   3
loop_
 _symmetry_equiv_pos_site_id
 _symmetry_equiv_pos_as_xyz
  1  'x, y, z'
loop_
 _atom_site_type_symbol
 _atom_site_label
 _atom_site_symmetry_multiplicity
 _atom_site_fract_x
 _atom_site_fract_y
 _atom_site_fract_z
 _atom_site_occupancy
  Al  Al0  1  0.32378907  0.14472755  0.28920582  1
  Al  Al1  1  0.49940257  0.30731072  0.46072171  1
  Al  Al2  1  0.73419240  0.05179180  0.71885927  1
  Al  Al3  1  0.81395587  0.63591050  0.80718854  1
  Al  Al4  1  0.89530107  0.22425004  0.87789298  1
  Al  Al5  1  0.96442488  0.81056978  0.95909274  1
  Al  Al6  1  0.05631945  0.39998264  0.04203411  1
  Al  Al7  1  0.40564124  0.82004132  0.89573131  1
  Al  Al8  1  0.48646587  0.40506782  0.97267990  1
  Al  Al9  1  0.56852217  0.99274938  0.05681545  1
  Al  Al10  1  0.64862534  0.56996192  0.14383698  1
  Al  Al11  1  0.01558331  0.89307741  0.49197442  1
  Al  Al12  1  0.10381033  0.49166065  0.56369305  1
  Al  Al13  1  0.26703435  0.65221575  0.72144875  1
  Al  Al14  1  0.32864579  0.24228046  0.81375169  1
  N  N15  1  0.90388408  0.93161533  0.34041238  1
  N  N16  1  0.98292645  0.51845236  0.41538962  1
  N  N17  1  0.08088218  0.09650233  0.47580178  1
  N  N18  1  0.17552521  0.68795560  0.55609588  1
  N  N19  1  0.24823184  0.27609216  0.64439689  1
  N  N20  1  0.33249886  0.84957783  0.72483036  1
  N  N21  1  0.40829314  0.43623106  0.80487151  1
  N  N22  1  0.46995879  0.02113333  0.89533842  1
  N  N23  1  0.55071486  0.60127497  0.98114563  1
  N  N24  1  0.63568666  0.19250040  0.04762957  1
  N  N25  1  0.70702161  0.77482252  0.12800323  1
  N  N26  1  0.80578175  0.36713723  0.21973927  1
  N  N27  1  0.13666643  0.78578362  0.06988084  1
  N  N28  1  0.23352927  0.36095619  0.15437161  1
  N  N29  1  0.32631909  0.96225241  0.23959531  1
  N  N30  1  0.41219250  0.52421843  0.33184937  1
  N  N31  1  0.48416016  0.13271619  0.40268671  1
  N  N32  1  0.57942239  0.69793710  0.49842121  1
  N  N33  1  0.67484714  0.26646869  0.56981736  1
  N  N34  1  0.76488829  0.86076265  0.66926586  1
  N  N35  1  0.84888247  0.45363135  0.74257279  1
  N  N36  1  0.91989145  0.04010536  0.81465808  1
  N  N37  1  0.00334255  0.62264499  0.89873998  1
  N  N38  1  0.06229928  0.21461989  0.98748848  1
  Ti  Ti39  1  0.13872965  0.97685711  0.13255578  1
  Ti  Ti40  1  0.22884745  0.55709174  0.21369938  1
  Ti  Ti41  1  0.43764114  0.73205085  0.35955522  1
  Ti  Ti42  1  0.61917967  0.90068859  0.51323355  1
  Ti  Ti43  1  0.70388157  0.47373500  0.59801509  1
  Ti  Ti44  1  0.76251683  0.14954492  0.21219032  1
  Ti  Ti45  1  0.85686037  0.74555036  0.29256839  1
  Ti  Ti46  1  0.94017605  0.32471178  0.37522182  1
  Ti  Ti47  1  0.20260700  0.07277991  0.62503162  1
