# generated using pymatgen
data_TiAlN2
_symmetry_space_group_name_H-M   'P 1'
_cell_length_a   7.24154048
_cell_length_b   7.27355452
_cell_length_c   6.83661808
_cell_angle_alpha   89.98723139
_cell_angle_beta   90.22816511
_cell_angle_gamma   108.48138138
_symmetry_Int_Tables_number   1
_chemical_formula_structural   TiAlN2
_chemical_formula_sum   'Ti8 Al8 N16'
_cell_volume   341.52229077
_cell_formula_units_Z   8
loop_
 _symmetry_equiv_pos_site_id
 _symmetry_equiv_pos_as_xyz
  1  'x, y, z'
loop_
 _atom_site_type_symbol
 _atom_site_label
 _atom_site_symmetry_multiplicity
 _atom_site_fract_x
 _atom_site_fract_y
 _atom_site_fract_z
 _atom_site_occupancy
  Al  Al0  1  0.36602719  0.69871029  0.49917462  1
  Al  Al1  1  0.36984337  0.69918879  0.00050646  1
  Al  Al2  1  0.60781955  0.45586125  0.74190982  1
  Al  Al3  1  0.11969956  0.94059366  0.25368839  1
  Al  Al4  1  0.45130934  0.10851459  0.50049275  1
  Al  Al5  1  0.94597986  0.61977410  0.50251029  1
  Al  Al6  1  0.69896326  0.86373153  0.25304401  1
  Al  Al7  1  0.69500309  0.86527373  0.74704173  1
  N  N8  1  0.11572136  0.46271574  0.50094430  1
  N  N9  1  0.60980715  0.94189610  0.49834677  1
  N  N10  1  0.36231225  0.18446129  0.26172333  1
  N  N11  1  0.12444472  0.45682209  0.99746352  1
  N  N12  1  0.61580278  0.93475488  0.00118018  1
  N  N13  1  0.37518989  0.19932483  0.73677100  1
  N  N14  1  0.86565773  0.70248348  0.26065673  1
  N  N15  1  0.85868765  0.70135363  0.74091344  1
  N  N16  1  0.20068355  0.86120834  0.49968009  1
  N  N17  1  0.69500975  0.37212277  0.50989423  1
  N  N18  1  0.44922119  0.62178465  0.25078143  1
  N  N19  1  0.20143760  0.86043114  0.00899148  1
  N  N20  1  0.68917519  0.37568015  0.97951260  1
  N  N21  1  0.44972217  0.62293253  0.74848411  1
  N  N22  1  0.95201834  0.09462939  0.25211923  1
  N  N23  1  0.93440245  0.10584710  0.74836513  1
  Ti  Ti24  1  0.86960698  0.20596461  0.49291663  1
  Ti  Ti25  1  0.61562259  0.44177223  0.24637816  1
  Ti  Ti26  1  0.86614158  0.20627415  0.00631908  1
  Ti  Ti27  1  0.11823986  0.95371489  0.75618302  1
  Ti  Ti28  1  0.45803762  0.12091548  0.00176360  1
  Ti  Ti29  1  0.93815502  0.60664114  0.00205108  1
  Ti  Ti30  1  0.19163814  0.35845954  0.25146065  1
  Ti  Ti31  1  0.18861922  0.35616184  0.74873215  1
