# generated using pymatgen
data_Ti5Al3N8
_symmetry_space_group_name_H-M   'P 1'
_cell_length_a   6.85470025
_cell_length_b   6.90659530
_cell_length_c   12.64693946
_cell_angle_alpha   90.21687253
_cell_angle_beta   89.99013214
_cell_angle_gamma   119.72835415
_symmetry_Int_Tables_number   1
_chemical_formula_structural   Ti5Al3N8
_chemical_formula_sum   'Ti15 Al9 N24'
_cell_volume   519.93241158
_cell_formula_units_Z   3
loop_
 _symmetry_equiv_pos_site_id
 _symmetry_equiv_pos_as_xyz
  1  'x, y, z'
loop_
 _atom_site_type_symbol
 _atom_site_label
 _atom_site_symmetry_multiplicity
 _atom_site_fract_x
 _atom_site_fract_y
 _atom_site_fract_z
 _atom_site_occupancy
  Ti  Ti0  1  0.32426421  0.16803331  0.97810371  1
  Ti  Ti1  1  0.84361933  0.16643953  0.97891390  1
  Ti  Ti2  1  0.83996354  0.67828424  0.98168985  1
  Ti  Ti3  1  0.83564098  0.17207342  0.31456798  1
  Ti  Ti4  1  0.32645562  0.66084147  0.31579308  1
  Ti  Ti5  1  0.83423965  0.66102565  0.31330363  1
  Ti  Ti6  1  0.33340363  0.16781048  0.64429967  1
  Ti  Ti7  1  0.83347233  0.16725390  0.64285981  1
  Ti  Ti8  1  0.16236575  0.32444651  0.81488949  1
  Ti  Ti9  1  0.16473328  0.33281761  0.14292244  1
  Ti  Ti10  1  0.66941550  0.33358085  0.14322981  1
  Ti  Ti11  1  0.16732906  0.33444170  0.47939734  1
  Ti  Ti12  1  0.66615557  0.33379575  0.47784581  1
  Ti  Ti13  1  0.16518749  0.83078416  0.47916420  1
  Ti  Ti14  1  0.66698947  0.83428440  0.47709866  1
  N  N15  1  0.32920551  0.15594127  0.14635447  1
  N  N16  1  0.82538412  0.15249721  0.14481681  1
  N  N17  1  0.34028599  0.68119979  0.14312926  1
  N  N18  1  0.84283502  0.68367407  0.14438159  1
  N  N19  1  0.32977901  0.15996111  0.47411603  1
  N  N20  1  0.83251489  0.16586177  0.47871086  1
  N  N21  1  0.33460232  0.66860724  0.48631171  1
  N  N22  1  0.83294434  0.66705996  0.48554686  1
  N  N23  1  0.33808917  0.15578020  0.81161647  1
  N  N24  1  0.81856415  0.15681376  0.81177635  1
  N  N25  1  0.33597847  0.67188653  0.81098254  1
  N  N26  1  0.83336006  0.66546508  0.81084516  1
  N  N27  1  0.18262316  0.36454045  0.97879085  1
  N  N28  1  0.66917329  0.33935990  0.97490038  1
  N  N29  1  0.17513901  0.82649371  0.97772153  1
  N  N30  1  0.65164999  0.82509573  0.97744331  1
  N  N31  1  0.17776890  0.32514709  0.31166315  1
  N  N32  1  0.64580470  0.32441040  0.31122476  1
  N  N33  1  0.17407069  0.84775507  0.30809893  1
  N  N34  1  0.66411025  0.82949111  0.30770704  1
  N  N35  1  0.17240860  0.34510346  0.64728651  1
  N  N36  1  0.67160113  0.34523386  0.65104426  1
  N  N37  1  0.15994159  0.82144703  0.65121592  1
  N  N38  1  0.66137684  0.82151010  0.65168470  1
  Al  Al39  1  0.33761614  0.67480285  0.97905450  1
  Al  Al40  1  0.33024335  0.16182879  0.31055857  1
  Al  Al41  1  0.33527632  0.66916499  0.64952590  1
  Al  Al42  1  0.83312656  0.66787715  0.64939161  1
  Al  Al43  1  0.66725244  0.33387022  0.81367663  1
  Al  Al44  1  0.16700025  0.82893109  0.81246746  1
  Al  Al45  1  0.66264545  0.82954821  0.81258319  1
  Al  Al46  1  0.17087576  0.83538794  0.14537365  1
  Al  Al47  1  0.66351712  0.83233986  0.14591963  1
