# generated using pymatgen
data_Ti4H9(W4C3)5
_symmetry_space_group_name_H-M   'P 1'
_cell_length_a   6.03450905
_cell_length_b   6.03179785
_cell_length_c   15.01223440
_cell_angle_alpha   90.00734279
_cell_angle_beta   90.00025529
_cell_angle_gamma   119.96642415
_symmetry_Int_Tables_number   1
_chemical_formula_structural   Ti4H9(W4C3)5
_chemical_formula_sum   'Ti4 H9 W20 C15'
_cell_volume   473.38176173
_cell_formula_units_Z   1
loop_
 _symmetry_equiv_pos_site_id
 _symmetry_equiv_pos_as_xyz
  1  'x, y, z'
loop_
 _atom_site_type_symbol
 _atom_site_label
 _atom_site_symmetry_multiplicity
 _atom_site_fract_x
 _atom_site_fract_y
 _atom_site_fract_z
 _atom_site_occupancy
  W  W0  1  0.16935501  0.82754909  0.07873341  1
  W  W1  1  0.16998068  0.34178564  0.07783523  1
  W  W2  1  0.66057327  0.82991904  0.07701828  1
  W  W3  1  0.82934996  0.17367204  0.92094152  1
  W  W4  1  0.83214723  0.65755844  0.91932612  1
  W  W5  1  0.34425697  0.17056219  0.91942573  1
  W  W6  1  0.83561215  0.16301365  0.41251507  1
  W  W7  1  0.83636784  0.67223997  0.41167290  1
  W  W8  1  0.32416727  0.16120379  0.40924744  1
  W  W9  1  0.50262150  0.50607112  0.25140058  1
  W  W10  1  0.50264744  0.99577632  0.25151788  1
  W  W11  1  0.50835588  0.00970503  0.74345034  1
  W  W12  1  0.99047607  0.49204231  0.74363847  1
  W  W13  1  0.16232469  0.83898534  0.58765295  1
  W  W14  1  0.16310322  0.32534053  0.58600528  1
  W  W15  1  0.67616413  0.83776629  0.58536372  1
  W  W16  1  0.00246983  0.00043131  0.25270823  1
  W  W17  1  0.00151047  0.99893760  0.74851700  1
  W  W18  1  0.66869098  0.33323994  0.58493092  1
  W  W19  1  0.33515734  0.66656256  0.91815362  1
  Ti  Ti20  1  0.99822611  0.49838929  0.24597409  1
  Ti  Ti21  1  0.49983051  0.50119482  0.74988164  1
  Ti  Ti22  1  0.66525637  0.33187729  0.08503191  1
  Ti  Ti23  1  0.33647635  0.66727167  0.41943572  1
  C  C24  1  0.00255444  0.00036542  0.49775787  1
  C  C25  1  0.66568533  0.33499369  0.83148133  1
  C  C26  1  0.33249345  0.66546078  0.16559741  1
  C  C27  1  0.00182743  0.00036590  0.99809357  1
  C  C28  1  0.67250595  0.33550320  0.33048013  1
  C  C29  1  0.33564546  0.66542846  0.66636920  1
  C  C30  1  0.49971540  0.00378800  0.50073476  1
  C  C31  1  0.99858315  0.50023266  0.50151850  1
  C  C32  1  0.50194755  0.49560811  0.50006802  1
  C  C33  1  0.16293647  0.33286664  0.83422136  1
  C  C34  1  0.66856823  0.83875675  0.83435943  1
  C  C35  1  0.16924109  0.83264108  0.83224622  1
  C  C36  1  0.83408637  0.67269447  0.16587683  1
  C  C37  1  0.32940360  0.16411714  0.16776193  1
  C  C38  1  0.83436271  0.16005508  0.16574271  1
  H  H39  1  0.50118387  0.01082310  0.00475620  1
  H  H40  1  0.98720737  0.49491665  0.00471572  1
  H  H41  1  0.50264547  0.49105171  0.00470331  1
  H  H42  1  0.16675950  0.34040026  0.33295767  1
  H  H43  1  0.65531763  0.82735655  0.33880236  1
  H  H44  1  0.16747818  0.82563149  0.33263924  1
  H  H45  1  0.82518715  0.66614732  0.67143473  1
  H  H46  1  0.33409545  0.17482329  0.67210157  1
  H  H47  1  0.83544746  0.16487696  0.66520188  1
