# generated using pymatgen
data_Ti5Al3N8
_symmetry_space_group_name_H-M   'P 1'
_cell_length_a   5.42877091
_cell_length_b   6.85835915
_cell_length_c   10.10866740
_cell_angle_alpha   79.97754441
_cell_angle_beta   96.12207424
_cell_angle_gamma   71.76378095
_symmetry_Int_Tables_number   1
_chemical_formula_structural   Ti5Al3N8
_chemical_formula_sum   'Ti10 Al6 N16'
_cell_volume   346.75018876
_cell_formula_units_Z   2
loop_
 _symmetry_equiv_pos_site_id
 _symmetry_equiv_pos_as_xyz
  1  'x, y, z'
loop_
 _atom_site_type_symbol
 _atom_site_label
 _atom_site_symmetry_multiplicity
 _atom_site_fract_x
 _atom_site_fract_y
 _atom_site_fract_z
 _atom_site_occupancy
  Ti  Ti0  1  0.21097979  0.48432684  0.85009517  1
  Ti  Ti1  1  0.47195054  0.73082882  0.60138033  1
  Ti  Ti2  1  0.95528474  0.24182955  0.09583449  1
  Ti  Ti3  1  0.95826084  0.73197599  0.09693731  1
  Ti  Ti4  1  0.75321065  0.36261814  0.80886963  1
  Ti  Ti5  1  0.01585726  0.10489744  0.55650887  1
  Ti  Ti6  1  0.76190175  0.85584412  0.81160610  1
  Ti  Ti7  1  0.01109583  0.60898724  0.55840374  1
  Ti  Ti8  1  0.50119934  0.11148061  0.05836199  1
  Ti  Ti9  1  0.49809889  0.61101684  0.05729816  1
  N  N10  1  0.33789264  0.60514083  0.23534991  1
  N  N11  1  0.84482531  0.61162484  0.72180132  1
  N  N12  1  0.09443474  0.35589468  0.46875239  1
  N  N13  1  0.33995179  0.10706701  0.23415467  1
  N  N14  1  0.84437499  0.10975628  0.71771321  1
  N  N15  1  0.08719107  0.86339284  0.46465400  1
  N  N16  1  0.58383811  0.36105059  0.97579336  1
  N  N17  1  0.57629476  0.86385095  0.97283475  1
  N  N18  1  0.87614061  0.48068551  0.19554405  1
  N  N19  1  0.38749880  0.47015793  0.67742104  1
  N  N20  1  0.62425141  0.23350601  0.43149041  1
  N  N21  1  0.88300943  0.98160016  0.18973019  1
  N  N22  1  0.38028663  0.99578864  0.68398505  1
  N  N23  1  0.62841872  0.73525855  0.42516732  1
  N  N24  1  0.13191896  0.22017865  0.92693495  1
  N  N25  1  0.13190042  0.75511159  0.92854171  1
  Al  Al26  1  0.70464099  0.48393670  0.35078675  1
  Al  Al27  1  0.47170261  0.23106104  0.59637179  1
  Al  Al28  1  0.70852929  0.98589739  0.34842619  1
  Al  Al29  1  0.21721177  0.98807426  0.84431645  1
  Al  Al30  1  0.25249273  0.35841833  0.30824307  1
  Al  Al31  1  0.25535456  0.85874164  0.30669164  1
