# generated using pymatgen
data_Ti2HC
_symmetry_space_group_name_H-M   'P 1'
_cell_length_a   6.22162351
_cell_length_b   6.22162351
_cell_length_c   14.30866830
_cell_angle_alpha   90.00000000
_cell_angle_beta   90.00000000
_cell_angle_gamma   120.00000005
_symmetry_Int_Tables_number   1
_chemical_formula_structural   Ti2HC
_chemical_formula_sum   'Ti24 H12 C12'
_cell_volume   479.66419537
_cell_formula_units_Z   12
loop_
 _symmetry_equiv_pos_site_id
 _symmetry_equiv_pos_as_xyz
  1  'x, y, z'
loop_
 _atom_site_type_symbol
 _atom_site_label
 _atom_site_symmetry_multiplicity
 _atom_site_fract_x
 _atom_site_fract_y
 _atom_site_fract_z
 _atom_site_occupancy
  C  C0  1  -0.00000000  0.00000000  0.50000000  1
  C  C1  1  0.33333333  0.16666667  0.83333333  1
  C  C2  1  0.16666667  0.33333333  0.16666667  1
  C  C3  1  0.00000000  0.50000000  0.50000000  1
  C  C4  1  0.33333333  0.66666667  0.83333333  1
  C  C5  1  0.16666667  0.83333333  0.16666667  1
  C  C6  1  0.50000000  -0.00000000  0.50000000  1
  C  C7  1  0.83333333  0.16666667  0.83333333  1
  C  C8  1  0.66666667  0.33333333  0.16666667  1
  C  C9  1  0.50000000  0.50000000  0.50000000  1
  C  C10  1  0.83333333  0.66666667  0.83333333  1
  C  C11  1  0.66666667  0.83333333  0.16666667  1
  Ti  Ti12  1  0.00000000  0.00000000  0.75606922  1
  Ti  Ti13  1  -0.00000000  -0.00000000  0.24393078  1
  Ti  Ti14  1  0.33333333  0.16666667  0.08940255  1
  Ti  Ti15  1  0.33333333  0.16666667  0.57726412  1
  Ti  Ti16  1  0.16666667  0.33333333  0.42273588  1
  Ti  Ti17  1  0.16666667  0.33333333  0.91059745  1
  Ti  Ti18  1  0.00000000  0.50000000  0.75606922  1
  Ti  Ti19  1  -0.00000000  0.50000000  0.24393078  1
  Ti  Ti20  1  0.33333333  0.66666667  0.08940255  1
  Ti  Ti21  1  0.33333333  0.66666667  0.57726412  1
  Ti  Ti22  1  0.16666667  0.83333333  0.42273588  1
  Ti  Ti23  1  0.16666667  0.83333333  0.91059745  1
  Ti  Ti24  1  0.50000000  0.00000000  0.75606922  1
  Ti  Ti25  1  0.50000000  -0.00000000  0.24393078  1
  Ti  Ti26  1  0.83333333  0.16666667  0.08940255  1
  Ti  Ti27  1  0.83333333  0.16666667  0.57726412  1
  Ti  Ti28  1  0.66666667  0.33333333  0.42273588  1
  Ti  Ti29  1  0.66666667  0.33333333  0.91059745  1
  Ti  Ti30  1  0.50000000  0.50000000  0.75606922  1
  Ti  Ti31  1  0.50000000  0.50000000  0.24393078  1
  Ti  Ti32  1  0.83333333  0.66666667  0.08940255  1
  Ti  Ti33  1  0.83333333  0.66666667  0.57726412  1
  Ti  Ti34  1  0.66666667  0.83333333  0.42273588  1
  Ti  Ti35  1  0.66666667  0.83333333  0.91059745  1
  H  H36  1  -0.00000000  0.00000000  0.00000000  1
  H  H37  1  0.33333333  0.16666667  0.33333333  1
  H  H38  1  0.16666667  0.33333333  0.66666667  1
  H  H39  1  -0.00000000  0.50000000  0.00000000  1
  H  H40  1  0.33333333  0.66666667  0.33333333  1
  H  H41  1  0.16666667  0.83333333  0.66666667  1
  H  H42  1  0.50000000  0.00000000  0.00000000  1
  H  H43  1  0.83333333  0.16666667  0.33333333  1
  H  H44  1  0.66666667  0.33333333  0.66666667  1
  H  H45  1  0.50000000  0.50000000  0.00000000  1
  H  H46  1  0.83333333  0.66666667  0.33333333  1
  H  H47  1  0.66666667  0.83333333  0.66666667  1
