# generated using pymatgen
data_Ti5Al3N8
_symmetry_space_group_name_H-M   'P 1'
_cell_length_a   7.27235970
_cell_length_b   7.30472827
_cell_length_c   6.90978392
_cell_angle_alpha   90.10178363
_cell_angle_beta   89.80779282
_cell_angle_gamma   109.11483979
_symmetry_Int_Tables_number   1
_chemical_formula_structural   Ti5Al3N8
_chemical_formula_sum   'Ti10 Al6 N16'
_cell_volume   346.82523531
_cell_formula_units_Z   2
loop_
 _symmetry_equiv_pos_site_id
 _symmetry_equiv_pos_as_xyz
  1  'x, y, z'
loop_
 _atom_site_type_symbol
 _atom_site_label
 _atom_site_symmetry_multiplicity
 _atom_site_fract_x
 _atom_site_fract_y
 _atom_site_fract_z
 _atom_site_occupancy
  Ti  Ti0  1  0.35967819  0.69635638  0.50214285  1
  Ti  Ti1  1  0.86843105  0.19892373  0.49569774  1
  Ti  Ti2  1  0.61604346  0.45224696  0.24850767  1
  Ti  Ti3  1  0.36212139  0.69766709  0.00109598  1
  Ti  Ti4  1  0.61866160  0.45072242  0.74973600  1
  Ti  Ti5  1  0.45435482  0.12353431  0.50045968  1
  Ti  Ti6  1  0.94137990  0.60699681  0.49985144  1
  Ti  Ti7  1  0.68775918  0.85666031  0.24999473  1
  Ti  Ti8  1  0.94318145  0.60899425  0.00096298  1
  Ti  Ti9  1  0.20627951  0.37432449  0.24863287  1
  N  N10  1  0.12094128  0.44041184  0.51827297  1
  N  N11  1  0.61655592  0.94661672  0.51248093  1
  N  N12  1  0.36345118  0.18838656  0.23917913  1
  N  N13  1  0.11226209  0.43662168  0.98894906  1
  N  N14  1  0.61480927  0.95491987  0.98968857  1
  N  N15  1  0.35796460  0.19495837  0.75977875  1
  N  N16  1  0.87128286  0.70748598  0.24733186  1
  N  N17  1  0.86557872  0.70987600  0.75462934  1
  N  N18  1  0.18963657  0.87674957  0.49998852  1
  N  N19  1  0.70097278  0.36276399  0.49799798  1
  N  N20  1  0.44190694  0.62058194  0.25042276  1
  N  N21  1  0.19615165  0.87409232  0.99905877  1
  N  N22  1  0.70062315  0.34936680  0.99574384  1
  N  N23  1  0.44808663  0.61772856  0.75311120  1
  N  N24  1  0.94990399  0.11197168  0.23817575  1
  N  N25  1  0.94944570  0.10899635  0.75679848  1
  Al  Al26  1  0.86661538  0.19200945  0.99761581  1
  Al  Al27  1  0.11567131  0.95121172  0.24705758  1
  Al  Al28  1  0.11348728  0.94879988  0.75206029  1
  Al  Al29  1  0.44935415  0.11538408  0.99630165  1
  Al  Al30  1  0.70027802  0.86884115  0.75358154  1
  Al  Al31  1  0.19712997  0.35579876  0.75469326  1
