# generated using pymatgen
data_Ti3AlN4
_symmetry_space_group_name_H-M   'P 1'
_cell_length_a   5.45378254
_cell_length_b   5.99930441
_cell_length_c   11.25031476
_cell_angle_alpha   90.02927626
_cell_angle_beta   107.15196229
_cell_angle_gamma   90.09852154
_symmetry_Int_Tables_number   1
_chemical_formula_structural   Ti3AlN4
_chemical_formula_sum   'Ti12 Al4 N16'
_cell_volume   351.72641721
_cell_formula_units_Z   4
loop_
 _symmetry_equiv_pos_site_id
 _symmetry_equiv_pos_as_xyz
  1  'x, y, z'
loop_
 _atom_site_type_symbol
 _atom_site_label
 _atom_site_symmetry_multiplicity
 _atom_site_fract_x
 _atom_site_fract_y
 _atom_site_fract_z
 _atom_site_occupancy
  Ti  Ti0  1  0.41780529  0.16861894  0.63934570  1
  Ti  Ti1  1  0.67077090  0.16386198  0.38947148  1
  Ti  Ti2  1  0.93211926  0.16402162  0.14292783  1
  Ti  Ti3  1  0.28543992  0.66685971  0.76575291  1
  Ti  Ti4  1  0.55111833  0.67217826  0.51626949  1
  Ti  Ti5  1  0.91481745  0.33210586  0.63971902  1
  Ti  Ti6  1  0.17703981  0.33092932  0.39141022  1
  Ti  Ti7  1  0.42940952  0.32544233  0.14137480  1
  Ti  Ti8  1  0.78542096  0.83733697  0.76407043  1
  Ti  Ti9  1  0.04996690  0.83372959  0.51722289  1
  Ti  Ti10  1  0.30234470  0.83198394  0.26569258  1
  Ti  Ti11  1  0.54750974  0.83642410  0.01622046  1
  N  N12  1  0.79757071  0.17720166  0.77511118  1
  N  N13  1  0.04429474  0.16999304  0.51574793  1
  N  N14  1  0.30321510  0.16506699  0.26550343  1
  N  N15  1  0.54662457  0.17186916  0.00703659  1
  N  N16  1  0.91582348  0.66671899  0.64409002  1
  N  N17  1  0.16869331  0.66844892  0.38688540  1
  N  N18  1  0.42531542  0.66002930  0.13659646  1
  N  N19  1  0.67396159  0.65772800  0.89418689  1
  N  N20  1  0.29695117  0.32920683  0.77487923  1
  N  N21  1  0.54771897  0.33795495  0.51414032  1
  N  N22  1  0.80288211  0.34530429  0.26307392  1
  N  N23  1  0.04432449  0.34084172  0.01076558  1
  N  N24  1  0.41474648  0.83344211  0.64363461  1
  N  N25  1  0.68251501  0.81933278  0.38088567  1
  N  N26  1  0.92425370  0.81578415  0.13847048  1
  N  N27  1  0.16160820  0.84378632  0.89857946  1
  Al  Al28  1  0.16574739  0.16971248  0.89220855  1
  Al  Al29  1  0.80448626  0.66455962  0.26278637  1
  Al  Al30  1  0.04628509  0.66336035  0.01494668  1
  Al  Al31  1  0.66921944  0.33616568  0.89099340  1
