# generated using pymatgen
data_Ti3AlN4
_symmetry_space_group_name_H-M   'P 1'
_cell_length_a   7.33583279
_cell_length_b   7.35273271
_cell_length_c   6.91291719
_cell_angle_alpha   90.03352514
_cell_angle_beta   89.93823062
_cell_angle_gamma   109.65893647
_symmetry_Int_Tables_number   1
_chemical_formula_structural   Ti3AlN4
_chemical_formula_sum   'Ti12 Al4 N16'
_cell_volume   351.13761046
_cell_formula_units_Z   4
loop_
 _symmetry_equiv_pos_site_id
 _symmetry_equiv_pos_as_xyz
  1  'x, y, z'
loop_
 _atom_site_type_symbol
 _atom_site_label
 _atom_site_symmetry_multiplicity
 _atom_site_fract_x
 _atom_site_fract_y
 _atom_site_fract_z
 _atom_site_occupancy
  Ti  Ti0  1  0.37037908  0.70069218  0.50133415  1
  Ti  Ti1  1  0.86148648  0.19212528  0.50374020  1
  Ti  Ti2  1  0.60567514  0.44505733  0.25216760  1
  Ti  Ti3  1  0.86178991  0.19576687  0.99813323  1
  Ti  Ti4  1  0.60811570  0.44385467  0.74906324  1
  Ti  Ti5  1  0.12431874  0.95540258  0.25084656  1
  Ti  Ti6  1  0.45483517  0.11719918  0.49911529  1
  Ti  Ti7  1  0.69973500  0.86567691  0.24838146  1
  Ti  Ti8  1  0.45423542  0.12073276  0.00082606  1
  Ti  Ti9  1  0.70078032  0.86283874  0.75181366  1
  Ti  Ti10  1  0.19257108  0.36463930  0.24892334  1
  Ti  Ti11  1  0.19508242  0.36286336  0.75004496  1
  N  N12  1  0.10793358  0.45431649  0.50110699  1
  N  N13  1  0.61947155  0.94327211  0.50262940  1
  N  N14  1  0.36499640  0.20239976  0.25163289  1
  N  N15  1  0.10931485  0.46059328  0.99716303  1
  N  N16  1  0.60713205  0.94106915  0.99813460  1
  N  N17  1  0.35788538  0.18971955  0.74961389  1
  N  N18  1  0.87304235  0.69370741  0.25038298  1
  N  N19  1  0.87635230  0.69514266  0.74912596  1
  N  N20  1  0.19231747  0.86044914  0.50784597  1
  N  N21  1  0.70544483  0.37212802  0.50011599  1
  N  N22  1  0.44082557  0.62100057  0.23384836  1
  N  N23  1  0.19491145  0.85784604  0.99223505  1
  N  N24  1  0.70181712  0.37626628  0.00044550  1
  N  N25  1  0.44279069  0.61716588  0.76167789  1
  N  N26  1  0.94922565  0.11178853  0.24763356  1
  N  N27  1  0.95862910  0.10212903  0.75357490  1
  Al  Al28  1  0.35694150  0.70025689  0.99738260  1
  Al  Al29  1  0.11759381  0.94101802  0.75166837  1
  Al  Al30  1  0.94744762  0.61558657  0.50004058  1
  Al  Al31  1  0.94692233  0.61729544  0.99935174  1
