# generated using pymatgen
data_Mg4Ti4H3C5
_symmetry_space_group_name_H-M   'P 1'
_cell_length_a   6.32779639
_cell_length_b   6.30160455
_cell_length_c   15.26561568
_cell_angle_alpha   90.23989475
_cell_angle_beta   89.81770524
_cell_angle_gamma   119.95049959
_symmetry_Int_Tables_number   1
_chemical_formula_structural   Mg4Ti4H3C5
_chemical_formula_sum   'Mg12 Ti12 H9 C15'
_cell_volume   527.42517680
_cell_formula_units_Z   3
loop_
 _symmetry_equiv_pos_site_id
 _symmetry_equiv_pos_as_xyz
  1  'x, y, z'
loop_
 _atom_site_type_symbol
 _atom_site_label
 _atom_site_symmetry_multiplicity
 _atom_site_fract_x
 _atom_site_fract_y
 _atom_site_fract_z
 _atom_site_occupancy
  Ti  Ti0  1  0.16024902  0.84285334  0.09498259  1
  Ti  Ti1  1  0.15926217  0.31170158  0.09110795  1
  Ti  Ti2  1  0.68991599  0.84588489  0.09521788  1
  Ti  Ti3  1  0.32249479  0.16603445  0.90476758  1
  Ti  Ti4  1  0.82962821  0.18292940  0.42149728  1
  Ti  Ti5  1  0.83010111  0.66316914  0.42040931  1
  Ti  Ti6  1  0.35043628  0.18300751  0.42098542  1
  Ti  Ti7  1  0.50439119  0.48334303  0.24020580  1
  Ti  Ti8  1  0.98083936  0.48315633  0.24041770  1
  Ti  Ti9  1  0.48093200  0.96550079  0.75438369  1
  Ti  Ti10  1  0.97832413  0.99226200  0.76499767  1
  Ti  Ti11  1  0.33313980  0.66907176  0.42399818  1
  Mg  Mg12  1  0.83169335  0.15469996  0.91630707  1
  Mg  Mg13  1  0.83203353  0.67452250  0.91167316  1
  Mg  Mg14  1  0.50427043  0.00556630  0.24586985  1
  Mg  Mg15  1  0.49106405  0.49582772  0.75213736  1
  Mg  Mg16  1  0.00223408  0.49700643  0.75824275  1
  Mg  Mg17  1  0.17423718  0.83642853  0.57574312  1
  Mg  Mg18  1  0.17642600  0.35862169  0.57517616  1
  Mg  Mg19  1  0.65716462  0.83547381  0.57613063  1
  Mg  Mg20  1  0.00282556  0.00297733  0.25072474  1
  Mg  Mg21  1  0.66714559  0.34113964  0.57289240  1
  Mg  Mg22  1  0.66430079  0.32810508  0.08606659  1
  Mg  Mg23  1  0.32863301  0.66147466  0.91020402  1
  C  C24  1  0.00507981  0.01200114  0.48382827  1
  C  C25  1  0.64538552  0.31391025  0.84256927  1
  C  C26  1  0.32827443  0.65115169  0.16585131  1
  C  C27  1  0.00248832  0.99572617  0.01366598  1
  C  C28  1  0.67522671  0.34920561  0.33117954  1
  C  C29  1  0.33170106  0.67724736  0.66878372  1
  C  C30  1  0.50167419  0.00620546  0.48314011  1
  C  C31  1  0.00187868  0.50827210  0.48695327  1
  C  C32  1  0.50204865  0.50871339  0.48631308  1
  C  C33  1  0.15819667  0.30201570  0.83458012  1
  C  C34  1  0.66870598  0.84161021  0.82666591  1
  C  C35  1  0.16844883  0.85720166  0.83036942  1
  C  C36  1  0.83432486  0.66540869  0.16829568  1
  C  C37  1  0.32972698  0.16981531  0.16516548  1
  C  C38  1  0.84328001  0.16995595  0.16436044  1
  H  H39  1  0.47576206  0.95435494  0.01345718  1
  H  H40  1  0.03212208  0.51465607  0.01064061  1
  H  H41  1  0.47262717  0.49009435  0.00625281  1
  H  H42  1  0.19701928  0.39220416  0.32955826  1
  H  H43  1  0.64101795  0.80564157  0.33831748  1
  H  H44  1  0.16386327  0.80627200  0.33819070  1
  H  H45  1  0.84356693  0.69304522  0.66548182  1
  H  H46  1  0.40700106  0.18765711  0.66634246  1
  H  H47  1  0.81883723  0.14687598  0.67589817  1
