# generated using pymatgen
data_Ti7AlN8
_symmetry_space_group_name_H-M   'P 1'
_cell_length_a   5.48219035
_cell_length_b   7.34884922
_cell_length_c   9.24669200
_cell_angle_alpha   74.40610131
_cell_angle_beta   83.10718570
_cell_angle_gamma   90.43105189
_symmetry_Int_Tables_number   1
_chemical_formula_structural   Ti7AlN8
_chemical_formula_sum   'Ti14 Al2 N16'
_cell_volume   355.91461762
_cell_formula_units_Z   2
loop_
 _symmetry_equiv_pos_site_id
 _symmetry_equiv_pos_as_xyz
  1  'x, y, z'
loop_
 _atom_site_type_symbol
 _atom_site_label
 _atom_site_symmetry_multiplicity
 _atom_site_fract_x
 _atom_site_fract_y
 _atom_site_fract_z
 _atom_site_occupancy
  Ti  Ti0  1  0.62775629  0.30757688  0.67438968  1
  Ti  Ti1  1  0.49852396  0.43346476  0.29890009  1
  Ti  Ti2  1  0.37936195  0.56045957  0.92526576  1
  Ti  Ti3  1  0.25271831  0.68479413  0.54996985  1
  Ti  Ti4  1  0.12779422  0.81181679  0.17456983  1
  Ti  Ti5  1  0.00515701  0.93744613  0.79912795  1
  Ti  Ti6  1  0.87887054  0.05882984  0.42254067  1
  Ti  Ti7  1  0.48200767  0.95408893  0.90344222  1
  Ti  Ti8  1  0.35653055  0.08058203  0.52813284  1
  Ti  Ti9  1  0.22977388  0.20513537  0.15298386  1
  Ti  Ti10  1  0.11066030  0.33197558  0.77932113  1
  Ti  Ti11  1  0.98161758  0.45836155  0.40345885  1
  Ti  Ti12  1  0.73054633  0.70666060  0.65563560  1
  Ti  Ti13  1  0.60452569  0.82808864  0.27905365  1
  N  N14  1  0.05211363  0.37795033  0.99167771  1
  N  N15  1  0.94091228  0.49662532  0.61540848  1
  N  N16  1  0.81505202  0.61951898  0.22673435  1
  N  N17  1  0.69953430  0.73992957  0.87240081  1
  N  N18  1  0.56680749  0.87030074  0.48556072  1
  N  N19  1  0.44760046  0.00052381  0.10929022  1
  N  N20  1  0.31622183  0.12172910  0.73777434  1
  N  N21  1  0.18649479  0.24912055  0.35635728  1
  N  N22  1  0.79433073  0.14623125  0.85123466  1
  N  N23  1  0.66858085  0.26879737  0.46259513  1
  N  N24  1  0.55704774  0.38770620  0.08657603  1
  N  N25  1  0.42263539  0.51646700  0.72198187  1
  N  N26  1  0.29338011  0.64400601  0.34012994  1
  N  N27  1  0.16200080  0.76525431  0.96885563  1
  N  N28  1  0.04258265  0.89513278  0.59274482  1
  N  N29  1  0.90980718  0.02578879  0.20571109  1
  Al  Al30  1  0.75259611  0.18755646  0.04842764  1
  Al  Al31  1  0.85645734  0.57808068  0.02974728  1
