# generated using pymatgen
data_Ti6Al2H3C5
_symmetry_space_group_name_H-M   'P 1'
_cell_length_a   6.13320453
_cell_length_b   6.13790497
_cell_length_c   14.80380200
_cell_angle_alpha   90.75503066
_cell_angle_beta   89.18566354
_cell_angle_gamma   120.43870113
_symmetry_Int_Tables_number   1
_chemical_formula_structural   Ti6Al2H3C5
_chemical_formula_sum   'Ti18 Al6 H9 C15'
_cell_volume   480.41915659
_cell_formula_units_Z   3
loop_
 _symmetry_equiv_pos_site_id
 _symmetry_equiv_pos_as_xyz
  1  'x, y, z'
loop_
 _atom_site_type_symbol
 _atom_site_label
 _atom_site_symmetry_multiplicity
 _atom_site_fract_x
 _atom_site_fract_y
 _atom_site_fract_z
 _atom_site_occupancy
  Ti  Ti0  1  0.14452868  0.82247963  0.08695909  1
  Ti  Ti1  1  0.14877964  0.31062588  0.08922035  1
  Ti  Ti2  1  0.83491343  0.16600357  0.91493099  1
  Ti  Ti3  1  0.32643861  0.16587877  0.91429535  1
  Ti  Ti4  1  0.84150705  0.17739690  0.41980196  1
  Ti  Ti5  1  0.84331105  0.66785918  0.41974336  1
  Ti  Ti6  1  0.49049105  0.48235809  0.24681900  1
  Ti  Ti7  1  0.48959341  0.00010205  0.24652527  1
  Ti  Ti8  1  0.97810051  0.48579106  0.24602716  1
  Ti  Ti9  1  0.49669994  0.50586437  0.75481029  1
  Ti  Ti10  1  0.01232776  0.50505305  0.75534978  1
  Ti  Ti11  1  0.18416078  0.83926978  0.57883122  1
  Ti  Ti12  1  0.18377149  0.35406718  0.57795265  1
  Ti  Ti13  1  0.67339284  0.84394159  0.58000761  1
  Ti  Ti14  1  0.00187597  0.99976483  0.75590206  1
  Ti  Ti15  1  0.67875358  0.34676652  0.57972256  1
  Ti  Ti16  1  0.33441489  0.67154451  0.90980211  1
  Ti  Ti17  1  0.34665293  0.67395532  0.42340365  1
  Al  Al18  1  0.66909434  0.82642690  0.09181214  1
  Al  Al19  1  0.84261864  0.69059484  0.90470490  1
  Al  Al20  1  0.36891800  0.18503213  0.42986796  1
  Al  Al21  1  0.49672637  0.98680257  0.75898356  1
  Al  Al22  1  0.97969228  0.98487412  0.23960363  1
  Al  Al23  1  0.65356157  0.31586048  0.09478044  1
  C  C24  1  0.01711988  0.01147847  0.49445263  1
  C  C25  1  0.66946205  0.33942831  0.83695334  1
  C  C26  1  0.32392953  0.65658368  0.16548173  1
  C  C27  1  0.97557354  0.97727532  0.00077875  1
  C  C28  1  0.65803748  0.32806919  0.33362895  1
  C  C29  1  0.34447508  0.67821373  0.66736786  1
  C  C30  1  0.51648954  0.00845384  0.50286714  1
  C  C31  1  0.00975837  0.50911253  0.49943361  1
  C  C32  1  0.51739453  0.51622974  0.50133234  1
  C  C33  1  0.16473302  0.33203866  0.83409219  1
  C  C34  1  0.66960829  0.83976215  0.83290792  1
  C  C35  1  0.16994713  0.83964385  0.83204901  1
  C  C36  1  0.81737633  0.65021753  0.16436131  1
  C  C37  1  0.31697748  0.15139315  0.16770439  1
  C  C38  1  0.81903688  0.15423897  0.16632825  1
  H  H39  1  0.46370329  0.97210553  0.98906316  1
  H  H40  1  0.05584337  0.50606532  0.00073618  1
  H  H41  1  0.45063038  0.49401695  0.99663945  1
  H  H42  1  0.17333339  0.38512600  0.33490455  1
  H  H43  1  0.63173199  0.81482833  0.33754653  1
  H  H44  1  0.17568396  0.78680208  0.33490855  1
  H  H45  1  0.83850143  0.67210678  0.66872128  1
  H  H46  1  0.32942203  0.18866897  0.65766908  1
  H  H47  1  0.87090626  0.17982760  0.66021470  1
