# generated using pymatgen
data_Ti2C
_symmetry_space_group_name_H-M   'P 1'
_cell_length_a   6.16908362
_cell_length_b   6.16908362
_cell_length_c   14.49411295
_cell_angle_alpha   90.00000000
_cell_angle_beta   90.00000000
_cell_angle_gamma   120.00000009
_symmetry_Int_Tables_number   1
_chemical_formula_structural   Ti2C
_chemical_formula_sum   'Ti24 C12'
_cell_volume   477.70917975
_cell_formula_units_Z   12
loop_
 _symmetry_equiv_pos_site_id
 _symmetry_equiv_pos_as_xyz
  1  'x, y, z'
loop_
 _atom_site_type_symbol
 _atom_site_label
 _atom_site_symmetry_multiplicity
 _atom_site_fract_x
 _atom_site_fract_y
 _atom_site_fract_z
 _atom_site_occupancy
  C  C0  1  0.00000000  0.00000000  0.50000000  1
  C  C1  1  0.33333333  0.16666667  0.83333333  1
  C  C2  1  0.16666667  0.33333333  0.16666667  1
  C  C3  1  0.00000000  0.50000000  0.50000000  1
  C  C4  1  0.33333333  0.66666667  0.83333333  1
  C  C5  1  0.16666667  0.83333333  0.16666667  1
  C  C6  1  0.50000000  0.00000000  0.50000000  1
  C  C7  1  0.83333333  0.16666667  0.83333333  1
  C  C8  1  0.66666667  0.33333333  0.16666667  1
  C  C9  1  0.50000000  0.50000000  0.50000000  1
  C  C10  1  0.83333333  0.66666667  0.83333333  1
  C  C11  1  0.66666667  0.83333333  0.16666667  1
  Ti  Ti12  1  0.00000000  0.00000000  0.75462180  1
  Ti  Ti13  1  0.00000000  0.00000000  0.24537820  1
  Ti  Ti14  1  0.33333333  0.16666667  0.08795513  1
  Ti  Ti15  1  0.33333333  0.16666667  0.57871154  1
  Ti  Ti16  1  0.16666667  0.33333333  0.42128846  1
  Ti  Ti17  1  0.16666667  0.33333333  0.91204487  1
  Ti  Ti18  1  0.00000000  0.50000000  0.75462180  1
  Ti  Ti19  1  0.00000000  0.50000000  0.24537820  1
  Ti  Ti20  1  0.33333333  0.66666667  0.08795513  1
  Ti  Ti21  1  0.33333333  0.66666667  0.57871154  1
  Ti  Ti22  1  0.16666667  0.83333333  0.42128846  1
  Ti  Ti23  1  0.16666667  0.83333333  0.91204487  1
  Ti  Ti24  1  0.50000000  0.00000000  0.75462180  1
  Ti  Ti25  1  0.50000000  0.00000000  0.24537820  1
  Ti  Ti26  1  0.83333333  0.16666667  0.08795513  1
  Ti  Ti27  1  0.83333333  0.16666667  0.57871154  1
  Ti  Ti28  1  0.66666667  0.33333333  0.42128846  1
  Ti  Ti29  1  0.66666667  0.33333333  0.91204487  1
  Ti  Ti30  1  0.50000000  0.50000000  0.75462180  1
  Ti  Ti31  1  0.50000000  0.50000000  0.24537820  1
  Ti  Ti32  1  0.83333333  0.66666667  0.08795513  1
  Ti  Ti33  1  0.83333333  0.66666667  0.57871154  1
  Ti  Ti34  1  0.66666667  0.83333333  0.42128846  1
  Ti  Ti35  1  0.66666667  0.83333333  0.91204487  1
