# generated using pymatgen
data_Ti6Al2C5
_symmetry_space_group_name_H-M   'P 1'
_cell_length_a   6.10076498
_cell_length_b   6.12572887
_cell_length_c   14.74807443
_cell_angle_alpha   90.18343642
_cell_angle_beta   89.56951688
_cell_angle_gamma   120.23157717
_symmetry_Int_Tables_number   1
_chemical_formula_structural   Ti6Al2C5
_chemical_formula_sum   'Ti18 Al6 C15'
_cell_volume   476.18694764
_cell_formula_units_Z   3
loop_
 _symmetry_equiv_pos_site_id
 _symmetry_equiv_pos_as_xyz
  1  'x, y, z'
loop_
 _atom_site_type_symbol
 _atom_site_label
 _atom_site_symmetry_multiplicity
 _atom_site_fract_x
 _atom_site_fract_y
 _atom_site_fract_z
 _atom_site_occupancy
  Ti  Ti0  1  0.15231891  0.83222518  0.08733805  1
  Ti  Ti1  1  0.15423727  0.31403517  0.08937782  1
  Ti  Ti2  1  0.83353112  0.16664480  0.91481316  1
  Ti  Ti3  1  0.32858535  0.16861013  0.91334735  1
  Ti  Ti4  1  0.84062901  0.17424343  0.41956355  1
  Ti  Ti5  1  0.84121547  0.66577490  0.42009184  1
  Ti  Ti6  1  0.49973877  0.48906520  0.24524303  1
  Ti  Ti7  1  0.49845631  0.00571614  0.24522212  1
  Ti  Ti8  1  0.97969182  0.48883949  0.24355745  1
  Ti  Ti9  1  0.49743870  0.50528559  0.75580001  1
  Ti  Ti10  1  0.00806389  0.50413930  0.75558301  1
  Ti  Ti11  1  0.17973422  0.83329205  0.57891147  1
  Ti  Ti12  1  0.17826235  0.34606283  0.57730155  1
  Ti  Ti13  1  0.66480290  0.83419748  0.58043162  1
  Ti  Ti14  1  0.00008944  0.99877779  0.75770024  1
  Ti  Ti15  1  0.66730120  0.33359432  0.57545946  1
  Ti  Ti16  1  0.33668209  0.67723975  0.91046906  1
  Ti  Ti17  1  0.34246335  0.67070955  0.42059465  1
  Al  Al18  1  0.66745902  0.83287110  0.08909094  1
  Al  Al19  1  0.84098661  0.68182407  0.91093634  1
  Al  Al20  1  0.35009026  0.17451926  0.42182279  1
  Al  Al21  1  0.49923657  0.99562791  0.75223884  1
  Al  Al22  1  0.98729270  0.98996024  0.24914423  1
  Al  Al23  1  0.66018117  0.32490058  0.08536702  1
  C  C24  1  0.00690739  0.00290607  0.49943101  1
  C  C25  1  0.66784133  0.33854050  0.83546506  1
  C  C26  1  0.32328970  0.65935923  0.16657425  1
  C  C27  1  0.98866062  0.99193799  0.00227683  1
  C  C28  1  0.66414516  0.33106783  0.33043733  1
  C  C29  1  0.33500490  0.66371428  0.66655560  1
  C  C30  1  0.50936208  0.00117098  0.49973757  1
  C  C31  1  0.00673583  0.50372525  0.49874545  1
  C  C32  1  0.51039761  0.50846388  0.49944319  1
  C  C33  1  0.16670004  0.33654899  0.83526072  1
  C  C34  1  0.66804920  0.83875856  0.83398791  1
  C  C35  1  0.17058419  0.83854146  0.83296969  1
  C  C36  1  0.82381844  0.65847672  0.16452493  1
  C  C37  1  0.32416516  0.15818503  0.16810490  1
  C  C38  1  0.82584985  0.16044698  0.16707993  1
