# generated using pymatgen
data_Mg4Ti4C5
_symmetry_space_group_name_H-M   'P 1'
_cell_length_a   6.34109757
_cell_length_b   6.33194544
_cell_length_c   15.40154788
_cell_angle_alpha   90.76304188
_cell_angle_beta   89.11722599
_cell_angle_gamma   120.07452274
_symmetry_Int_Tables_number   1
_chemical_formula_structural   Mg4Ti4C5
_chemical_formula_sum   'Mg12 Ti12 C15'
_cell_volume   535.06845561
_cell_formula_units_Z   3
loop_
 _symmetry_equiv_pos_site_id
 _symmetry_equiv_pos_as_xyz
  1  'x, y, z'
loop_
 _atom_site_type_symbol
 _atom_site_label
 _atom_site_symmetry_multiplicity
 _atom_site_fract_x
 _atom_site_fract_y
 _atom_site_fract_z
 _atom_site_occupancy
  Ti  Ti0  1  0.16718032  0.84928689  0.09808503  1
  Ti  Ti1  1  0.16517692  0.31197727  0.09482495  1
  Ti  Ti2  1  0.69887748  0.84769740  0.09657233  1
  Ti  Ti3  1  0.32812173  0.16056416  0.90894574  1
  Ti  Ti4  1  0.82957991  0.19231028  0.42054924  1
  Ti  Ti5  1  0.82805518  0.66528178  0.42194902  1
  Ti  Ti6  1  0.35430792  0.19274416  0.42057713  1
  Ti  Ti7  1  0.50920487  0.48580500  0.24142437  1
  Ti  Ti8  1  0.97976265  0.48439939  0.24053351  1
  Ti  Ti9  1  0.49007556  0.96373281  0.76279800  1
  Ti  Ti10  1  0.99304405  0.98199795  0.76927525  1
  Ti  Ti11  1  0.33344916  0.67455378  0.42586902  1
  Mg  Mg12  1  0.82623005  0.13979642  0.91895230  1
  Mg  Mg13  1  0.82614113  0.66117559  0.91517626  1
  Mg  Mg14  1  0.50342231  0.00165664  0.24900470  1
  Mg  Mg15  1  0.48598842  0.48618547  0.75131148  1
  Mg  Mg16  1  0.00402796  0.48605723  0.76022253  1
  Mg  Mg17  1  0.17166435  0.84719608  0.57386675  1
  Mg  Mg18  1  0.17085538  0.36262172  0.57564945  1
  Mg  Mg19  1  0.65577184  0.84743212  0.57448216  1
  Mg  Mg20  1  0.00407644  0.00821580  0.25781337  1
  Mg  Mg21  1  0.66414503  0.34664024  0.57360736  1
  Mg  Mg22  1  0.66664727  0.32660581  0.08579633  1
  Mg  Mg23  1  0.33366022  0.65390741  0.91534249  1
  C  C24  1  0.00203107  0.01614340  0.47382854  1
  C  C25  1  0.64202501  0.29776737  0.84052252  1
  C  C26  1  0.32791037  0.64834558  0.16599859  1
  C  C27  1  0.00992164  0.99216917  0.01774943  1
  C  C28  1  0.67755372  0.35791978  0.32926072  1
  C  C29  1  0.32808400  0.69140878  0.66831397  1
  C  C30  1  0.49955330  0.01247659  0.48122757  1
  C  C31  1  0.00153223  0.51546488  0.48510398  1
  C  C32  1  0.50075010  0.51561444  0.48568227  1
  C  C33  1  0.15852983  0.28956400  0.83696265  1
  C  C34  1  0.67198872  0.82822346  0.82541320  1
  C  C35  1  0.17208611  0.84550196  0.83656893  1
  C  C36  1  0.83882324  0.66823675  0.16999748  1
  C  C37  1  0.33135728  0.17115164  0.16636073  1
  C  C38  1  0.84838724  0.17217081  0.16438064  1
