# generated using pymatgen
data_Ti4(W4C3)5
_symmetry_space_group_name_H-M   'P 1'
_cell_length_a   6.02274229
_cell_length_b   6.01636925
_cell_length_c   14.84611096
_cell_angle_alpha   90.02553171
_cell_angle_beta   90.06053518
_cell_angle_gamma   119.99109633
_symmetry_Int_Tables_number   1
_chemical_formula_structural   Ti4(W4C3)5
_chemical_formula_sum   'Ti4 W20 C15'
_cell_volume   465.91912481
_cell_formula_units_Z   1
loop_
 _symmetry_equiv_pos_site_id
 _symmetry_equiv_pos_as_xyz
  1  'x, y, z'
loop_
 _atom_site_type_symbol
 _atom_site_label
 _atom_site_symmetry_multiplicity
 _atom_site_fract_x
 _atom_site_fract_y
 _atom_site_fract_z
 _atom_site_occupancy
  W  W0  1  0.16852066  0.83009780  0.08196002  1
  W  W1  1  0.16913787  0.33665859  0.08210263  1
  W  W2  1  0.66295331  0.83019741  0.08100208  1
  W  W3  1  0.83211238  0.17078765  0.91877903  1
  W  W4  1  0.83263185  0.66300614  0.91721078  1
  W  W5  1  0.33894198  0.17006932  0.91778954  1
  W  W6  1  0.83005090  0.16377976  0.41611242  1
  W  W7  1  0.83091168  0.66896174  0.41532237  1
  W  W8  1  0.32242971  0.16198943  0.41203205  1
  W  W9  1  0.50665439  0.50456118  0.24935727  1
  W  W10  1  0.50659518  0.00083585  0.24955622  1
  W  W11  1  0.50905110  0.00687444  0.74683594  1
  W  W12  1  0.99308217  0.49061097  0.74680396  1
  W  W13  1  0.16161306  0.83838875  0.58775439  1
  W  W14  1  0.16384968  0.32899786  0.58494497  1
  W  W15  1  0.66950082  0.83556258  0.58456564  1
  W  W16  1  0.00331902  0.00135735  0.25417385  1
  W  W17  1  0.00165584  0.99744313  0.74562748  1
  W  W18  1  0.66698384  0.33171010  0.58734408  1
  W  W19  1  0.33503947  0.66709882  0.92126641  1
  Ti  Ti20  1  0.99648359  0.49755155  0.24687151  1
  Ti  Ti21  1  0.49831473  0.50178730  0.75167873  1
  Ti  Ti22  1  0.66611554  0.33224933  0.08305460  1
  Ti  Ti23  1  0.33429759  0.66828820  0.41691503  1
  C  C24  1  0.99918325  0.99983101  0.49899880  1
  C  C25  1  0.66545117  0.33485581  0.83237014  1
  C  C26  1  0.33146905  0.66525376  0.16721250  1
  C  C27  1  0.00088331  -0.00008078  0.99944096  1
  C  C28  1  0.67106800  0.33572246  0.33190282  1
  C  C29  1  0.33419351  0.66505217  0.66718364  1
  C  C30  1  0.49612538  0.00268136  0.50121317  1
  C  C31  1  0.99654801  0.50051316  0.50188455  1
  C  C32  1  0.49832101  0.49649192  0.50021936  1
  C  C33  1  0.16487196  0.33239573  0.83382247  1
  C  C34  1  0.66820488  0.83619038  0.83390491  1
  C  C35  1  0.16900809  0.83246289  0.83265829  1
  C  C36  1  0.83607845  0.66980955  0.16642684  1
  C  C37  1  0.33261878  0.16532772  0.16732709  1
  C  C38  1  0.83572878  0.16462763  0.16637346  1
