# generated using pymatgen
data_Ti6Ni2H3C5
_symmetry_space_group_name_H-M   'P 1'
_cell_length_a   6.04012212
_cell_length_b   6.04439380
_cell_length_c   14.65018748
_cell_angle_alpha   89.10834037
_cell_angle_beta   90.15558988
_cell_angle_gamma   119.78059616
_symmetry_Int_Tables_number   1
_chemical_formula_structural   Ti6Ni2H3C5
_chemical_formula_sum   'Ti18 Ni6 H9 C15'
_cell_volume   464.16070236
_cell_formula_units_Z   3
loop_
 _symmetry_equiv_pos_site_id
 _symmetry_equiv_pos_as_xyz
  1  'x, y, z'
loop_
 _atom_site_type_symbol
 _atom_site_label
 _atom_site_symmetry_multiplicity
 _atom_site_fract_x
 _atom_site_fract_y
 _atom_site_fract_z
 _atom_site_occupancy
  Ni  Ni0  1  0.16071063  0.84624098  0.09447579  1
  Ni  Ni1  1  0.86848524  0.70888395  0.90447508  1
  Ni  Ni2  1  0.80460883  0.17637266  0.42782298  1
  Ni  Ni3  1  0.05126635  0.52576373  0.76662513  1
  Ni  Ni4  1  0.05037545  0.02242563  0.76776486  1
  Ni  Ni5  1  0.36790731  0.68718888  0.89897647  1
  Ti  Ti6  1  0.16488539  0.31967035  0.08571018  1
  Ti  Ti7  1  0.67356337  0.82716075  0.08350187  1
  Ti  Ti8  1  0.87282789  0.17930850  0.91226152  1
  Ti  Ti9  1  0.35799655  0.17240216  0.91612069  1
  Ti  Ti10  1  0.80792871  0.65925527  0.42112034  1
  Ti  Ti11  1  0.31450804  0.16964293  0.42159296  1
  Ti  Ti12  1  0.50064574  0.48689050  0.24532290  1
  Ti  Ti13  1  0.50315306  0.99864446  0.24701595  1
  Ti  Ti14  1  0.98777087  0.48404153  0.24670430  1
  Ti  Ti15  1  0.53043670  0.52799142  0.75585664  1
  Ti  Ti16  1  0.52830215  0.01373602  0.75506693  1
  Ti  Ti17  1  0.14018621  0.82695489  0.58726303  1
  Ti  Ti18  1  0.14207507  0.33893230  0.58447072  1
  Ti  Ti19  1  0.63193121  0.82738649  0.57813782  1
  Ti  Ti20  1  0.99644643  0.98953581  0.24628386  1
  Ti  Ti21  1  0.64337850  0.32792535  0.57692032  1
  Ti  Ti22  1  0.67326979  0.33225360  0.08640917  1
  Ti  Ti23  1  0.30713173  0.66642970  0.42207547  1
  C  C24  1  0.97518649  0.99988925  0.50101191  1
  C  C25  1  0.70222755  0.35432655  0.83338881  1
  C  C26  1  0.32999373  0.66003801  0.16163023  1
  C  C27  1  0.01553093  0.98581752  0.99830571  1
  C  C28  1  0.65921560  0.32502847  0.33401537  1
  C  C29  1  0.32601300  0.67055327  0.67076940  1
  C  C30  1  0.46508144  0.99389041  0.50070015  1
  C  C31  1  0.98188029  0.50589234  0.50428267  1
  C  C32  1  0.47128916  0.49627004  0.49957742  1
  C  C33  1  0.20414553  0.35108393  0.83714910  1
  C  C34  1  0.69964681  0.85326283  0.82968687  1
  C  C35  1  0.18827367  0.83834338  0.83671249  1
  C  C36  1  0.83296240  0.66172882  0.16527538  1
  C  C37  1  0.33346020  0.15892472  0.16806110  1
  C  C38  1  0.83100653  0.15569253  0.16684965  1
  H  H39  1  0.56365237  0.05847694  0.99401086  1
  H  H40  1  0.97136711  0.42434646  0.00916070  1
  H  H41  1  0.48568305  0.46382237  0.01236268  1
  H  H42  1  0.19307934  0.34353426  0.32215759  1
  H  H43  1  0.63775574  0.78671328  0.32316882  1
  H  H44  1  0.14851023  0.82814753  0.33513692  1
  H  H45  1  0.77812378  0.64515655  0.64709133  1
  H  H46  1  0.34194132  0.17538937  0.67024925  1
  H  H47  1  0.78418248  0.14863327  0.64727061  1
