# generated using pymatgen
data_Ti8C5
_symmetry_space_group_name_H-M   'P 1'
_cell_length_a   6.13298925
_cell_length_b   6.13298926
_cell_length_c   14.87748168
_cell_angle_alpha   90.00000000
_cell_angle_beta   90.00000000
_cell_angle_gamma   120.00000000
_symmetry_Int_Tables_number   1
_chemical_formula_structural   Ti8C5
_chemical_formula_sum   'Ti24 C15'
_cell_volume   484.62349290
_cell_formula_units_Z   3
loop_
 _symmetry_equiv_pos_site_id
 _symmetry_equiv_pos_as_xyz
  1  'x, y, z'
loop_
 _atom_site_type_symbol
 _atom_site_label
 _atom_site_symmetry_multiplicity
 _atom_site_fract_x
 _atom_site_fract_y
 _atom_site_fract_z
 _atom_site_occupancy
  Ti  Ti0  1  0.16202683  0.83797317  0.08763978  1
  Ti  Ti1  1  0.16202683  0.32405367  0.08763978  1
  Ti  Ti2  1  0.67594633  0.83797317  0.08763978  1
  Ti  Ti3  1  0.83797317  0.16202683  0.91236022  1
  Ti  Ti4  1  0.83797317  0.67594633  0.91236022  1
  Ti  Ti5  1  0.32405367  0.16202683  0.91236022  1
  Ti  Ti6  1  0.82869350  0.17130650  0.42097312  1
  Ti  Ti7  1  0.82869350  0.65738700  0.42097312  1
  Ti  Ti8  1  0.34261300  0.17130650  0.42097312  1
  Ti  Ti9  1  0.50463984  0.49536016  0.24569355  1
  Ti  Ti10  1  0.50463984  0.00927966  0.24569355  1
  Ti  Ti11  1  0.99072034  0.49536016  0.24569355  1
  Ti  Ti12  1  0.49536016  0.50463984  0.75430645  1
  Ti  Ti13  1  0.49536016  0.99072034  0.75430645  1
  Ti  Ti14  1  0.00927966  0.50463984  0.75430645  1
  Ti  Ti15  1  0.17130650  0.82869350  0.57902688  1
  Ti  Ti16  1  0.17130650  0.34261300  0.57902688  1
  Ti  Ti17  1  0.65738700  0.82869350  0.57902688  1
  Ti  Ti18  1  -0.00000000  -0.00000000  0.24433195  1
  Ti  Ti19  1  -0.00000000  -0.00000000  0.75566805  1
  Ti  Ti20  1  0.66666667  0.33333333  0.57766528  1
  Ti  Ti21  1  0.66666667  0.33333333  0.08900139  1
  Ti  Ti22  1  0.33333333  0.66666667  0.91099861  1
  Ti  Ti23  1  0.33333333  0.66666667  0.42233472  1
  C  C24  1  -0.00000000  -0.00000000  0.50000000  1
  C  C25  1  0.66666667  0.33333333  0.83333333  1
  C  C26  1  0.33333333  0.66666667  0.16666667  1
  C  C27  1  -0.00000000  -0.00000000  -0.00000000  1
  C  C28  1  0.66666667  0.33333333  0.33333333  1
  C  C29  1  0.33333333  0.66666667  0.66666667  1
  C  C30  1  0.50000000  -0.00000000  0.50000000  1
  C  C31  1  -0.00000000  0.50000000  0.50000000  1
  C  C32  1  0.50000000  0.50000000  0.50000000  1
  C  C33  1  0.16666667  0.33333333  0.83333333  1
  C  C34  1  0.66666667  0.83333333  0.83333333  1
  C  C35  1  0.16666667  0.83333333  0.83333333  1
  C  C36  1  0.83333333  0.66666667  0.16666667  1
  C  C37  1  0.33333333  0.16666667  0.16666667  1
  C  C38  1  0.83333333  0.16666667  0.16666667  1
