# generated using pymatgen
data_Ti7AlN8
_symmetry_space_group_name_H-M   'P 1'
_cell_length_a   5.47682399
_cell_length_b   5.47682399
_cell_length_c   6.04201085
_cell_angle_alpha   90.00402462
_cell_angle_beta   89.99598210
_cell_angle_gamma   101.01016070
_symmetry_Int_Tables_number   1
_chemical_formula_structural   Ti7AlN8
_chemical_formula_sum   'Ti7 Al1 N8'
_cell_volume   177.89783650
_cell_formula_units_Z   1
loop_
 _symmetry_equiv_pos_site_id
 _symmetry_equiv_pos_as_xyz
  1  'x, y, z'
loop_
 _atom_site_type_symbol
 _atom_site_label
 _atom_site_symmetry_multiplicity
 _atom_site_fract_x
 _atom_site_fract_y
 _atom_site_fract_z
 _atom_site_occupancy
  Ti  Ti0  1  0.46881881  0.53118169  0.32450969  1
  Ti  Ti1  1  0.22116925  0.28369475  0.83611220  1
  Ti  Ti2  1  0.71630575  0.77883125  0.83611220  1
  Ti  Ti3  1  0.96877723  0.53128079  0.16552119  1
  Ti  Ti4  1  0.71555823  0.28444127  0.66721995  1
  Ti  Ti5  1  0.46871871  0.03122227  0.16552119  1
  Ti  Ti6  1  0.22196938  0.77803012  0.66709501  1
  N  N7  1  0.72457411  0.27542639  0.33276214  1
  N  N8  1  0.46867192  0.03122339  0.83340821  1
  N  N9  1  0.21295452  0.78704598  0.33265476  1
  N  N10  1  0.96877711  0.53132858  0.83340821  1
  N  N11  1  0.20435731  0.26688325  0.17780470  1
  N  N12  1  0.96875682  0.03124268  0.65931065  1
  N  N13  1  0.73311625  0.79564219  0.17780470  1
  N  N14  1  0.46878059  0.53121891  0.65248495  1
  Al  Al15  1  0.96869399  0.03130651  0.33827024  1
