# generated using pymatgen
data_Ti6Ni2C5
_symmetry_space_group_name_H-M   'P 1'
_cell_length_a   6.01615654
_cell_length_b   6.00296149
_cell_length_c   14.53319898
_cell_angle_alpha   88.10605828
_cell_angle_beta   91.36656442
_cell_angle_gamma   119.69602420
_symmetry_Int_Tables_number   1
_chemical_formula_structural   Ti6Ni2C5
_chemical_formula_sum   'Ti18 Ni6 C15'
_cell_volume   455.66456761
_cell_formula_units_Z   3
loop_
 _symmetry_equiv_pos_site_id
 _symmetry_equiv_pos_as_xyz
  1  'x, y, z'
loop_
 _atom_site_type_symbol
 _atom_site_label
 _atom_site_symmetry_multiplicity
 _atom_site_fract_x
 _atom_site_fract_y
 _atom_site_fract_z
 _atom_site_occupancy
  Ni  Ni0  1  0.16035655  0.84725260  0.09355094  1
  Ni  Ni1  1  0.85530803  0.68628191  0.90882819  1
  Ni  Ni2  1  0.81426270  0.17794413  0.42554344  1
  Ni  Ni3  1  0.03090943  0.50707205  0.75912444  1
  Ni  Ni4  1  0.01981484  0.99399205  0.76056035  1
  Ni  Ni5  1  0.34608690  0.66248515  0.90187300  1
  Ti  Ti6  1  0.15961238  0.32617234  0.08191819  1
  Ti  Ti7  1  0.66490890  0.84032895  0.07938903  1
  Ti  Ti8  1  0.86445736  0.16321304  0.90914240  1
  Ti  Ti9  1  0.34034629  0.14990670  0.91389950  1
  Ti  Ti10  1  0.81295028  0.66391476  0.42106759  1
  Ti  Ti11  1  0.32350064  0.17707851  0.42137323  1
  Ti  Ti12  1  0.50310046  0.49607668  0.24309931  1
  Ti  Ti13  1  0.50460496  0.00407259  0.24626486  1
  Ti  Ti14  1  0.99077476  0.49183462  0.24536784  1
  Ti  Ti15  1  0.51729485  0.51223701  0.75640195  1
  Ti  Ti16  1  0.51143621  0.99811512  0.75515494  1
  Ti  Ti17  1  0.15264008  0.82824623  0.58597597  1
  Ti  Ti18  1  0.15677629  0.33673684  0.58601969  1
  Ti  Ti19  1  0.64520213  0.82853431  0.58179245  1
  Ti  Ti20  1  0.99893300  0.99390128  0.24397640  1
  Ti  Ti21  1  0.65788557  0.32669567  0.57995467  1
  Ti  Ti22  1  0.66616339  0.34225280  0.08222434  1
  Ti  Ti23  1  0.31509056  0.67113060  0.42161857  1
  C  C24  1  0.98313365  0.00212064  0.50053238  1
  C  C25  1  0.69047451  0.34071855  0.83546322  1
  C  C26  1  0.32811007  0.66450715  0.16066955  1
  C  C27  1  0.00945671  0.98298070  0.99793060  1
  C  C28  1  0.66271141  0.33034656  0.33290324  1
  C  C29  1  0.32746494  0.66503180  0.67041258  1
  C  C30  1  0.47998813  0.99858945  0.50098192  1
  C  C31  1  0.98805102  0.50400433  0.50331311  1
  C  C32  1  0.48455652  0.49974293  0.50193592  1
  C  C33  1  0.18684410  0.32840308  0.83226938  1
  C  C34  1  0.68325987  0.83633338  0.83332353  1
  C  C35  1  0.17094648  0.81969742  0.83409112  1
  C  C36  1  0.82753513  0.66599484  0.16317800  1
  C  C37  1  0.33467475  0.17116991  0.16526532  1
  C  C38  1  0.83037618  0.16488336  0.16360881  1
