# generated using pymatgen
data_Ti7AlN8
_symmetry_space_group_name_H-M   'P 1'
_cell_length_a   7.34436970
_cell_length_b   7.36830546
_cell_length_c   6.99039257
_cell_angle_alpha   90.00000293
_cell_angle_beta   89.99999705
_cell_angle_gamma   109.84099311
_symmetry_Int_Tables_number   1
_chemical_formula_structural   Ti7AlN8
_chemical_formula_sum   'Ti14 Al2 N16'
_cell_volume   355.83307787
_cell_formula_units_Z   2
loop_
 _symmetry_equiv_pos_site_id
 _symmetry_equiv_pos_as_xyz
  1  'x, y, z'
loop_
 _atom_site_type_symbol
 _atom_site_label
 _atom_site_symmetry_multiplicity
 _atom_site_fract_x
 _atom_site_fract_y
 _atom_site_fract_z
 _atom_site_occupancy
  Ti  Ti0  1  0.36097409  0.69785032  0.50138926  1
  Ti  Ti1  1  0.86869612  0.20054018  0.49846091  1
  Ti  Ti2  1  0.61221985  0.44501256  0.25000000  1
  Ti  Ti3  1  0.36097409  0.69785032  0.99861074  1
  Ti  Ti4  1  0.86869612  0.20054018  0.00153909  1
  Ti  Ti5  1  0.61381711  0.44662747  0.75000000  1
  Ti  Ti6  1  0.11837455  0.94513456  0.75000000  1
  Ti  Ti7  1  0.45140659  0.11458407  0.50108396  1
  Ti  Ti8  1  0.94391962  0.61203485  0.49845975  1
  Ti  Ti9  1  0.45140659  0.11458407  0.99891604  1
  Ti  Ti10  1  0.94391962  0.61203485  0.00154025  1
  Ti  Ti11  1  0.69433221  0.86730424  0.75000000  1
  Ti  Ti12  1  0.20025799  0.36772325  0.25000000  1
  Ti  Ti13  1  0.19883996  0.36548075  0.75000000  1
  N  N14  1  0.11587343  0.44858072  0.49904122  1
  N  N15  1  0.62045196  0.94416315  0.48576798  1
  N  N16  1  0.36047961  0.19071589  0.25000000  1
  N  N17  1  0.11587343  0.44858072  0.00095878  1
  N  N18  1  0.62045196  0.94416315  0.01423202  1
  N  N19  1  0.36540299  0.19717466  0.75000000  1
  N  N20  1  0.86077212  0.70863014  0.25000000  1
  N  N21  1  0.86183751  0.69918769  0.75000000  1
  N  N22  1  0.19202236  0.86839875  0.48555298  1
  N  N23  1  0.69667738  0.36400203  0.49870993  1
  N  N24  1  0.45172831  0.62208609  0.25000000  1
  N  N25  1  0.19202236  0.86839875  0.01444702  1
  N  N26  1  0.69667738  0.36400203  0.00129007  1
  N  N27  1  0.44749993  0.61493593  0.75000000  1
  N  N28  1  0.95154916  0.10407921  0.25000000  1
  N  N29  1  0.95082340  0.11315246  0.75000000  1
  Al  Al30  1  0.11163098  0.94776991  0.25000000  1
  Al  Al31  1  0.70039126  0.86467709  0.25000000  1
