# generated using pymatgen
data_Fe14NiW5
_symmetry_space_group_name_H-M   'P 1'
_cell_length_a   6.53701874
_cell_length_b   6.45696106
_cell_length_c   5.96532502
_cell_angle_alpha   90.05955644
_cell_angle_beta   89.88583540
_cell_angle_gamma   89.91876672
_symmetry_Int_Tables_number   1
_chemical_formula_structural   Fe14NiW5
_chemical_formula_sum   'Fe14 Ni1 W5'
_cell_volume   251.79115734
_cell_formula_units_Z   1
loop_
 _symmetry_equiv_pos_site_id
 _symmetry_equiv_pos_as_xyz
  1  'x, y, z'
loop_
 _atom_site_type_symbol
 _atom_site_label
 _atom_site_symmetry_multiplicity
 _atom_site_fract_x
 _atom_site_fract_y
 _atom_site_fract_z
 _atom_site_occupancy
  Fe  Fe0  1  0.99658454  0.98797680  0.49857156  1
  Fe  Fe1  1  0.00321058  0.98718923  0.00251463  1
  Fe  Fe2  1  0.30404136  0.90442068  0.76615315  1
  Fe  Fe3  1  0.50114912  0.50405252  0.75968393  1
  Fe  Fe4  1  0.20253290  0.60716766  0.00027050  1
  Fe  Fe5  1  0.30023532  0.90244149  0.23222727  1
  Fe  Fe6  1  0.40691718  0.20304946  0.00327847  1
  Fe  Fe7  1  0.49898594  0.50053814  0.24047394  1
  Fe  Fe8  1  0.71095366  0.09750334  0.24479448  1
  Fe  Fe9  1  0.78795732  0.40924836  0.49811031  1
  Fe  Fe10  1  0.89342504  0.69707455  0.75447710  1
  Fe  Fe11  1  0.60020926  0.79607079  0.00754362  1
  Fe  Fe12  1  0.79288553  0.40798352  0.00072941  1
  Fe  Fe13  1  0.89625032  0.69850497  0.24701757  1
  Ni  Ni14  1  0.59646475  0.79683176  0.49056812  1
  W  W15  1  0.09759108  0.29947337  0.75369777  1
  W  W16  1  0.08683294  0.29789416  0.24853406  1
  W  W17  1  0.20930703  0.62091609  0.50145869  1
  W  W18  1  0.40869129  0.19152104  0.48985294  1
  W  W19  1  0.70577481  0.09014210  0.76004250  1
