# generated using pymatgen
data_Fe12Ni3W5
_symmetry_space_group_name_H-M   'P 1'
_cell_length_a   5.75492971
_cell_length_b   5.86560734
_cell_length_c   7.27287864
_cell_angle_alpha   89.88009052
_cell_angle_beta   89.49692410
_cell_angle_gamma   89.60557617
_symmetry_Int_Tables_number   1
_chemical_formula_structural   Fe12Ni3W5
_chemical_formula_sum   'Fe12 Ni3 W5'
_cell_volume   245.48865279
_cell_formula_units_Z   1
loop_
 _symmetry_equiv_pos_site_id
 _symmetry_equiv_pos_as_xyz
  1  'x, y, z'
loop_
 _atom_site_type_symbol
 _atom_site_label
 _atom_site_symmetry_multiplicity
 _atom_site_fract_x
 _atom_site_fract_y
 _atom_site_fract_z
 _atom_site_occupancy
  Ni  Ni0  1  0.98804035  0.00653472  0.49948904  1
  Ni  Ni1  1  0.90034952  0.70565027  0.24710065  1
  Ni  Ni2  1  0.60889858  0.79228291  0.49877735  1
  Fe  Fe3  1  0.00159053  0.98217231  -0.00116824  1
  Fe  Fe4  1  0.29710792  0.89398704  0.76208512  1
  Fe  Fe5  1  0.51004496  0.51034822  0.75495193  1
  Fe  Fe6  1  0.21083141  0.61531184  0.00210850  1
  Fe  Fe7  1  0.30342368  0.88885225  0.23417890  1
  Fe  Fe8  1  0.40916827  0.20499726  0.01467144  1
  Fe  Fe9  1  0.51581610  0.50414334  0.24912715  1
  Fe  Fe10  1  0.69703102  0.08660035  0.24098589  1
  Fe  Fe11  1  0.79466411  0.40564832  0.49781495  1
  Fe  Fe12  1  0.89273773  0.69701521  0.75390801  1
  Fe  Fe13  1  0.59640549  0.78409117  0.00369661  1
  Fe  Fe14  1  0.78824645  0.41441779  0.99680712  1
  W  W15  1  0.11053551  0.30134946  0.76953044  1
  W  W16  1  0.08140138  0.30173639  0.23015614  1
  W  W17  1  0.20220634  0.63256587  0.50095226  1
  W  W18  1  0.40187658  0.18376743  0.48239277  1
  W  W19  1  0.68962406  0.08852786  0.76243395  1
