# generated using pymatgen
data_Fe2NiW
_symmetry_space_group_name_H-M   'P 1'
_cell_length_a   5.74913038
_cell_length_b   5.79870834
_cell_length_c   7.33268572
_cell_angle_alpha   90.10978887
_cell_angle_beta   89.68063222
_cell_angle_gamma   89.58173315
_symmetry_Int_Tables_number   1
_chemical_formula_structural   Fe2NiW
_chemical_formula_sum   'Fe10 Ni5 W5'
_cell_volume   244.44285321
_cell_formula_units_Z   5
loop_
 _symmetry_equiv_pos_site_id
 _symmetry_equiv_pos_as_xyz
  1  'x, y, z'
loop_
 _atom_site_type_symbol
 _atom_site_label
 _atom_site_symmetry_multiplicity
 _atom_site_fract_x
 _atom_site_fract_y
 _atom_site_fract_z
 _atom_site_occupancy
  Ni  Ni0  1  0.98593084  0.00794727  0.49927334  1
  Ni  Ni1  1  0.59861305  0.79179155  0.00217217  1
  Ni  Ni2  1  0.79177573  0.40974964  -0.00050091  1
  Ni  Ni3  1  0.90021132  0.70750878  0.24659741  1
  Ni  Ni4  1  0.61201979  0.78864421  0.49878493  1
  Fe  Fe5  1  0.99372378  0.98734565  0.00059619  1
  Fe  Fe6  1  0.29914749  0.89375197  0.76209050  1
  Fe  Fe7  1  0.50686776  0.50450392  0.75220251  1
  Fe  Fe8  1  0.20369989  0.61067807  0.00270765  1
  Fe  Fe9  1  0.30159870  0.88809149  0.23796619  1
  Fe  Fe10  1  0.40716899  0.19812685  0.01350288  1
  Fe  Fe11  1  0.51798976  0.51046522  0.24666347  1
  Fe  Fe12  1  0.69478943  0.08629963  0.24145660  1
  Fe  Fe13  1  0.79665887  0.40869700  0.49741281  1
  Fe  Fe14  1  0.89419308  0.69691174  0.75501048  1
  W  W15  1  0.11483029  0.30191076  0.76783384  1
  W  W16  1  0.08359029  0.29969200  0.23511371  1
  W  W17  1  0.20189010  0.62991523  0.49954366  1
  W  W18  1  0.40417616  0.18244343  0.48305002  1
  W  W19  1  0.69112469  0.09552559  0.75852254  1
