# generated using pymatgen
data_Fe9Ni6W5
_symmetry_space_group_name_H-M   'P 1'
_cell_length_a   5.74808120
_cell_length_b   5.84350932
_cell_length_c   7.27208498
_cell_angle_alpha   89.81266787
_cell_angle_beta   89.82831485
_cell_angle_gamma   89.71051420
_symmetry_Int_Tables_number   1
_chemical_formula_structural   Fe9Ni6W5
_chemical_formula_sum   'Fe9 Ni6 W5'
_cell_volume   244.25630755
_cell_formula_units_Z   1
loop_
 _symmetry_equiv_pos_site_id
 _symmetry_equiv_pos_as_xyz
  1  'x, y, z'
loop_
 _atom_site_type_symbol
 _atom_site_label
 _atom_site_symmetry_multiplicity
 _atom_site_fract_x
 _atom_site_fract_y
 _atom_site_fract_z
 _atom_site_occupancy
  Ni  Ni0  1  0.98718659  0.00814216  0.50116620  1
  Ni  Ni1  1  0.89551938  0.69743370  0.75153309  1
  Ni  Ni2  1  0.59772146  0.79123688  -0.00040635  1
  Ni  Ni3  1  0.79232868  0.41090461  0.99778652  1
  Ni  Ni4  1  0.89351744  0.70450496  0.24698195  1
  Ni  Ni5  1  0.61016292  0.78507000  0.50229174  1
  Fe  Fe6  1  0.99931185  0.98439243  0.99987466  1
  Fe  Fe7  1  0.30033846  0.89631950  0.76200491  1
  Fe  Fe8  1  0.50003306  0.50114485  0.75193178  1
  Fe  Fe9  1  0.20162506  0.61103734  0.00122993  1
  Fe  Fe10  1  0.30617438  0.88369797  0.23577597  1
  Fe  Fe11  1  0.40740472  0.20484816  0.01927993  1
  Fe  Fe12  1  0.50770764  0.50474158  0.25712606  1
  Fe  Fe13  1  0.70189801  0.08631654  0.23967062  1
  Fe  Fe14  1  0.79992639  0.41276348  0.49633620  1
  W  W15  1  0.11996249  0.30162797  0.76527363  1
  W  W16  1  0.08146494  0.30257069  0.23616921  1
  W  W17  1  0.20332602  0.63099767  0.49903685  1
  W  W18  1  0.40739620  0.18212135  0.47780158  1
  W  W19  1  0.68699430  0.10012817  0.75913551  1
