# generated using pymatgen
data_AlV2N
_symmetry_space_group_name_H-M   'P 1'
_cell_length_a   2.88122085
_cell_length_b   2.88122085
_cell_length_c   13.19738911
_cell_angle_alpha   90.00000000
_cell_angle_beta   90.00000000
_cell_angle_gamma   119.98884522
_symmetry_Int_Tables_number   1
_chemical_formula_structural   AlV2N
_chemical_formula_sum   'Al2 V4 N2'
_cell_volume   94.89002384
_cell_formula_units_Z   2
loop_
 _symmetry_equiv_pos_site_id
 _symmetry_equiv_pos_as_xyz
  1  'x, y, z'
loop_
 _atom_site_type_symbol
 _atom_site_label
 _atom_site_symmetry_multiplicity
 _atom_site_fract_x
 _atom_site_fract_y
 _atom_site_fract_z
 _atom_site_occupancy
  Al  Al0  1  0.33214862  0.66785138  0.25000000  1
  Al  Al1  1  0.66660981  0.33339019  0.75000000  1
  V  V2  1  0.33308227  0.66691773  0.91474970  1
  V  V3  1  0.66621609  0.33378391  0.41474223  1
  V  V4  1  0.66621609  0.33378391  0.08525777  1
  V  V5  1  0.33308227  0.66691773  0.58525030  1
  N  N6  1  0.99965242  0.00034758  0.00000724  1
  N  N7  1  0.99965242  0.00034758  0.49999276  1
