# generated using pymatgen
data_Al2V4CO
_symmetry_space_group_name_H-M   'P 1'
_cell_length_a   5.76776944
_cell_length_b   2.84555466
_cell_length_c   13.41532221
_cell_angle_alpha   90.00000000
_cell_angle_beta   90.00000000
_cell_angle_gamma   119.60658711
_symmetry_Int_Tables_number   1
_chemical_formula_structural   Al2V4CO
_chemical_formula_sum   'Al4 V8 C2 O2'
_cell_volume   191.43203574
_cell_formula_units_Z   2
loop_
 _symmetry_equiv_pos_site_id
 _symmetry_equiv_pos_as_xyz
  1  'x, y, z'
loop_
 _atom_site_type_symbol
 _atom_site_label
 _atom_site_symmetry_multiplicity
 _atom_site_fract_x
 _atom_site_fract_y
 _atom_site_fract_z
 _atom_site_occupancy
  Al  Al0  1  0.15665420  0.65543032  0.25000000  1
  Al  Al1  1  0.33841585  0.33996656  0.75000000  1
  Al  Al2  1  0.66122249  0.66077300  0.25000000  1
  Al  Al3  1  0.84296705  0.34535930  0.75000000  1
  V  V4  1  0.16688940  0.66808543  0.91373049  1
  V  V5  1  0.32091087  0.32060138  0.40840532  1
  V  V6  1  0.32091087  0.32060138  0.09159468  1
  V  V7  1  0.16688940  0.66808543  0.58626951  1
  V  V8  1  0.67865949  0.68024674  0.90840486  1
  V  V9  1  0.83267642  0.33276589  0.41372699  1
  V  V10  1  0.83267642  0.33276589  0.08627301  1
  V  V11  1  0.67865949  0.68024674  0.59159514  1
  C  C12  1  0.99978351  0.00043054  0.00000101  1
  C  C13  1  0.99978351  0.00043054  0.49999899  1
  O  O14  1  0.49978054  0.00044043  0.99999869  1
  O  O15  1  0.49978054  0.00044043  0.50000131  1
