# generated using pymatgen
data_AlV2N
_symmetry_space_group_name_H-M   'P 1'
_cell_length_a   2.87882229
_cell_length_b   2.87882228
_cell_length_c   13.19125357
_cell_angle_alpha   90.00000000
_cell_angle_beta   90.00000000
_cell_angle_gamma   119.98881646
_symmetry_Int_Tables_number   1
_chemical_formula_structural   AlV2N
_chemical_formula_sum   'Al2 V4 N2'
_cell_volume   94.68808718
_cell_formula_units_Z   2
loop_
 _symmetry_equiv_pos_site_id
 _symmetry_equiv_pos_as_xyz
  1  'x, y, z'
loop_
 _atom_site_type_symbol
 _atom_site_label
 _atom_site_symmetry_multiplicity
 _atom_site_fract_x
 _atom_site_fract_y
 _atom_site_fract_z
 _atom_site_occupancy
  Al  Al0  1  0.33215217  0.66784783  0.25000000  1
  Al  Al1  1  0.66660919  0.33339081  0.75000000  1
  V  V2  1  0.33308160  0.66691840  0.91465649  1
  V  V3  1  0.66621563  0.33378437  0.41466083  1
  V  V4  1  0.66621563  0.33378437  0.08533917  1
  V  V5  1  0.33308160  0.66691840  0.58534351  1
  N  N6  1  0.99965208  0.00034792  -0.00000656  1
  N  N7  1  0.99965208  0.00034792  0.50000656  1
