# generated using pymatgen
data_AlV2O
_symmetry_space_group_name_H-M   'P 1'
_cell_length_a   2.74312161
_cell_length_b   2.74312161
_cell_length_c   14.18033412
_cell_angle_alpha   90.00000000
_cell_angle_beta   90.00000000
_cell_angle_gamma   119.97804790
_symmetry_Int_Tables_number   1
_chemical_formula_structural   AlV2O
_chemical_formula_sum   'Al2 V4 O2'
_cell_volume   92.42793359
_cell_formula_units_Z   2
loop_
 _symmetry_equiv_pos_site_id
 _symmetry_equiv_pos_as_xyz
  1  'x, y, z'
loop_
 _atom_site_type_symbol
 _atom_site_label
 _atom_site_symmetry_multiplicity
 _atom_site_fract_x
 _atom_site_fract_y
 _atom_site_fract_z
 _atom_site_occupancy
  Al  Al0  1  0.33242700  0.66757300  0.24999988  1
  Al  Al1  1  0.66660783  0.33339217  0.75000051  1
  V  V2  1  0.33311796  0.66688204  0.90306155  1
  V  V3  1  0.66607136  0.33392864  0.40306280  1
  V  V4  1  0.66607115  0.33392885  0.09693475  1
  V  V5  1  0.33311817  0.66688183  0.59694123  1
  O  O6  1  0.99962324  0.00037676  -0.00000211  1
  O  O7  1  0.99962331  0.00037669  0.50000139  1
