# generated using pymatgen
data_Al2V4CN
_symmetry_space_group_name_H-M   'P 1'
_cell_length_a   5.80651007
_cell_length_b   2.90297864
_cell_length_c   13.14859342
_cell_angle_alpha   90.00000000
_cell_angle_beta   90.00000000
_cell_angle_gamma   119.99685065
_symmetry_Int_Tables_number   1
_chemical_formula_structural   Al2V4CN
_chemical_formula_sum   'Al4 V8 C2 N2'
_cell_volume   191.94762091
_cell_formula_units_Z   2
loop_
 _symmetry_equiv_pos_site_id
 _symmetry_equiv_pos_as_xyz
  1  'x, y, z'
loop_
 _atom_site_type_symbol
 _atom_site_label
 _atom_site_symmetry_multiplicity
 _atom_site_fract_x
 _atom_site_fract_y
 _atom_site_fract_z
 _atom_site_occupancy
  Al  Al0  1  0.16662124  0.66662124  0.25053469  1
  Al  Al1  1  0.33337876  0.33337876  0.75053469  1
  Al  Al2  1  0.66662124  0.66662124  0.24946531  1
  Al  Al3  1  0.83337876  0.33337876  0.74946531  1
  V  V4  1  0.16591094  0.66591094  0.91506876  1
  V  V5  1  0.33408906  0.33408906  0.41506876  1
  V  V6  1  0.33157812  0.33157812  0.08470156  1
  V  V7  1  0.16842188  0.66842188  0.58470156  1
  V  V8  1  0.66842188  0.66842188  0.91529844  1
  V  V9  1  0.83157812  0.33157812  0.41529844  1
  V  V10  1  0.83408906  0.33408906  0.08493124  1
  V  V11  1  0.66591094  0.66591094  0.58493124  1
  N  N12  1  -0.00000000  0.00000000  -0.00000000  1
  N  N13  1  0.50000000  0.00000000  0.50000000  1
  C  C14  1  -0.00000000  0.00000000  0.50000000  1
  C  C15  1  0.50000000  0.00000000  -0.00000000  1
