# generated using pymatgen
data_FeNi2W
_symmetry_space_group_name_H-M   'P 1'
_cell_length_a   5.78973067
_cell_length_b   5.73486532
_cell_length_c   7.30658764
_cell_angle_alpha   89.86605225
_cell_angle_beta   90.01098593
_cell_angle_gamma   90.12850282
_symmetry_Int_Tables_number   1
_chemical_formula_structural   FeNi2W
_chemical_formula_sum   'Fe5 Ni10 W5'
_cell_volume   242.60173160
_cell_formula_units_Z   5
loop_
 _symmetry_equiv_pos_site_id
 _symmetry_equiv_pos_as_xyz
  1  'x, y, z'
loop_
 _atom_site_type_symbol
 _atom_site_label
 _atom_site_symmetry_multiplicity
 _atom_site_fract_x
 _atom_site_fract_y
 _atom_site_fract_z
 _atom_site_occupancy
  Ni  Ni0  1  0.98792696  0.00857675  0.50446797  1
  Ni  Ni1  1  0.40699558  0.20427206  0.01115513  1
  Ni  Ni2  1  0.50179682  0.50381860  0.24839113  1
  Ni  Ni3  1  0.70046406  0.09327500  0.24355179  1
  Ni  Ni4  1  0.80344907  0.40155197  0.49680916  1
  Ni  Ni5  1  0.89786511  0.69707195  0.75318140  1
  Ni  Ni6  1  0.59279526  0.79655817  0.00284657  1
  Ni  Ni7  1  0.79273238  0.41053581  0.99970857  1
  Ni  Ni8  1  0.90364432  0.70593348  0.24670645  1
  Ni  Ni9  1  0.61164061  0.78401387  0.49903254  1
  Fe  Fe10  1  0.00964843  0.98694071  0.99689389  1
  Fe  Fe11  1  0.29877504  0.89841803  0.75649891  1
  Fe  Fe12  1  0.49733957  0.50233783  0.75932240  1
  Fe  Fe13  1  0.19982584  0.61068056  -0.00060944  1
  Fe  Fe14  1  0.29931454  0.88794594  0.24241215  1
  W  W15  1  0.11597158  0.30268824  0.77028985  1
  W  W16  1  0.08173072  0.29747853  0.23156838  1
  W  W17  1  0.20677349  0.63359389  0.50027390  1
  W  W18  1  0.40667281  0.17688985  0.47853478  1
  W  W19  1  0.68463782  0.09741877  0.75896446  1
