# generated using pymatgen
data_LiC4
_symmetry_space_group_name_H-M   'P 1'
_cell_length_a   11.90879151
_cell_length_b   11.90879152
_cell_length_c   2.48626837
_cell_angle_alpha   90.00000000
_cell_angle_beta   90.00000000
_cell_angle_gamma   120.00000001
_symmetry_Int_Tables_number   1
_chemical_formula_structural   LiC4
_chemical_formula_sum   'Li6 C24'
_cell_volume   305.36131761
_cell_formula_units_Z   6
loop_
 _symmetry_equiv_pos_site_id
 _symmetry_equiv_pos_as_xyz
  1  'x, y, z'
loop_
 _atom_site_type_symbol
 _atom_site_label
 _atom_site_symmetry_multiplicity
 _atom_site_fract_x
 _atom_site_fract_y
 _atom_site_fract_z
 _atom_site_occupancy
  C  C0  1  0.92994653  0.31033967  -0.00000000  1
  C  C1  1  0.61960686  0.92994653  -0.00000000  1
  C  C2  1  0.68966033  0.61960686  -0.00000000  1
  C  C3  1  0.07005347  0.68966033  0.00000000  1
  C  C4  1  0.38039314  0.07005347  -0.00000000  1
  C  C5  1  0.31033967  0.38039314  -0.00000000  1
  C  C6  1  0.07102496  0.38083421  -0.00000000  1
  C  C7  1  0.69019075  0.07102496  0.00000000  1
  C  C8  1  0.61916579  0.69019075  -0.00000000  1
  C  C9  1  0.92897504  0.61916579  0.00000000  1
  C  C10  1  0.30980925  0.92897504  -0.00000000  1
  C  C11  1  0.38083421  0.30980925  -0.00000000  1
  C  C12  1  0.13630919  0.39168765  0.50000000  1
  C  C13  1  0.74462154  0.13630919  0.50000000  1
  C  C14  1  0.60831235  0.74462154  0.50000000  1
  C  C15  1  0.86369081  0.60831235  0.50000000  1
  C  C16  1  0.25537846  0.86369081  0.50000000  1
  C  C17  1  0.39168765  0.25537846  0.50000000  1
  C  C18  1  0.25614082  0.39155810  0.50000000  1
  C  C19  1  0.86458272  0.25614082  0.50000000  1
  C  C20  1  0.60844190  0.86458272  0.50000000  1
  C  C21  1  0.74385918  0.60844190  0.50000000  1
  C  C22  1  0.13541728  0.74385918  0.50000000  1
  C  C23  1  0.39155810  0.13541728  0.50000000  1
  Li  Li24  1  0.58266174  0.41724358  0.50000000  1
  Li  Li25  1  0.16541816  0.58266174  0.50000000  1
  Li  Li26  1  0.58275642  0.16541816  0.50000000  1
  Li  Li27  1  0.41733826  0.58275642  0.50000000  1
  Li  Li28  1  0.83458184  0.41733826  0.50000000  1
  Li  Li29  1  0.41724358  0.83458184  0.50000000  1
