# generated using pymatgen
data_LiC4
_symmetry_space_group_name_H-M   'P 1'
_cell_length_a   11.33047213
_cell_length_b   11.33047214
_cell_length_c   2.48870458
_cell_angle_alpha   90.00000000
_cell_angle_beta   90.00000000
_cell_angle_gamma   120.00000000
_symmetry_Int_Tables_number   1
_chemical_formula_structural   LiC4
_chemical_formula_sum   'Li6 C24'
_cell_volume   276.69416000
_cell_formula_units_Z   6
loop_
 _symmetry_equiv_pos_site_id
 _symmetry_equiv_pos_as_xyz
  1  'x, y, z'
loop_
 _atom_site_type_symbol
 _atom_site_label
 _atom_site_symmetry_multiplicity
 _atom_site_fract_x
 _atom_site_fract_y
 _atom_site_fract_z
 _atom_site_occupancy
  C  C0  1  0.03227026  0.38316960  0.00000000  1
  C  C1  1  0.64910068  0.03227026  -0.00000000  1
  C  C2  1  0.61683040  0.64910068  -0.00000000  1
  C  C3  1  0.96772974  0.61683040  -0.00000000  1
  C  C4  1  0.35089932  0.96772974  -0.00000000  1
  C  C5  1  0.38316960  0.35089932  -0.00000000  1
  C  C6  1  0.17641879  0.42483423  -0.00000000  1
  C  C7  1  0.75158455  0.17641879  -0.00000000  1
  C  C8  1  0.57516577  0.75158455  -0.00000000  1
  C  C9  1  0.82358121  0.57516577  0.00000000  1
  C  C10  1  0.24841545  0.82358121  -0.00000000  1
  C  C11  1  0.42483423  0.24841545  -0.00000000  1
  C  C12  1  0.24236024  0.42738587  0.50000000  1
  C  C13  1  0.81497438  0.24236024  0.50000000  1
  C  C14  1  0.57261413  0.81497438  0.50000000  1
  C  C15  1  0.75763976  0.57261413  0.50000000  1
  C  C16  1  0.18502562  0.75763976  0.50000000  1
  C  C17  1  0.42738587  0.18502562  0.50000000  1
  C  C18  1  0.34668508  0.38913461  0.50000000  1
  C  C19  1  0.95755046  0.34668508  0.50000000  1
  C  C20  1  0.61086539  0.95755046  0.50000000  1
  C  C21  1  0.65331492  0.61086539  0.50000000  1
  C  C22  1  0.04244954  0.65331492  0.50000000  1
  C  C23  1  0.38913461  0.04244954  0.50000000  1
  Li  Li24  1  0.23401055  0.17203317  0.50000000  1
  Li  Li25  1  0.06197738  0.23401055  0.50000000  1
  Li  Li26  1  0.82796683  0.06197738  0.50000000  1
  Li  Li27  1  0.76598945  0.82796683  0.50000000  1
  Li  Li28  1  0.93802262  0.76598945  0.50000000  1
  Li  Li29  1  0.17203317  0.93802262  0.50000000  1
