# generated using pymatgen
data_Fe3Ni12W5
_symmetry_space_group_name_H-M   'P 1'
_cell_length_a   5.76912135
_cell_length_b   5.76205946
_cell_length_c   7.28267828
_cell_angle_alpha   89.81629261
_cell_angle_beta   90.06409246
_cell_angle_gamma   89.83785967
_symmetry_Int_Tables_number   1
_chemical_formula_structural   Fe3Ni12W5
_chemical_formula_sum   'Fe3 Ni12 W5'
_cell_volume   242.08857143
_cell_formula_units_Z   1
loop_
 _symmetry_equiv_pos_site_id
 _symmetry_equiv_pos_as_xyz
  1  'x, y, z'
loop_
 _atom_site_type_symbol
 _atom_site_label
 _atom_site_symmetry_multiplicity
 _atom_site_fract_x
 _atom_site_fract_y
 _atom_site_fract_z
 _atom_site_occupancy
  Ni  Ni0  1  0.98895164  0.00467171  0.50181120  1
  Ni  Ni1  1  0.19708695  0.60761213  0.00212054  1
  Ni  Ni2  1  0.30243713  0.89256792  0.24098092  1
  Ni  Ni3  1  0.40249536  0.20202971  0.01003272  1
  Ni  Ni4  1  0.50215802  0.50037619  0.24975673  1
  Ni  Ni5  1  0.70070871  0.09369296  0.24489472  1
  Ni  Ni6  1  0.80147227  0.40187271  0.49761138  1
  Ni  Ni7  1  0.89969677  0.69598124  0.75348602  1
  Ni  Ni8  1  0.59837126  0.79805762  0.00428480  1
  Ni  Ni9  1  0.79021684  0.40855970  0.00071486  1
  Ni  Ni10  1  0.90272054  0.70259851  0.24693419  1
  Ni  Ni11  1  0.61128147  0.78836653  0.49427648  1
  Fe  Fe12  1  0.00585900  0.99629564  0.99367642  1
  Fe  Fe13  1  0.29814312  0.90066760  0.75256743  1
  Fe  Fe14  1  0.50391002  0.51252738  0.75893756  1
  W  W15  1  0.10917426  0.30138653  0.76696743  1
  W  W16  1  0.08113171  0.29209863  0.23710671  1
  W  W17  1  0.20688302  0.62837549  0.49907250  1
  W  W18  1  0.40879171  0.18131446  0.48442174  1
  W  W19  1  0.68851018  0.09094732  0.76034567  1
