# generated using pymatgen
data_LiC4
_symmetry_space_group_name_H-M   'P 1'
_cell_length_a   11.28548983
_cell_length_b   11.28548984
_cell_length_c   2.47775091
_cell_angle_alpha   90.00000000
_cell_angle_beta   90.00000000
_cell_angle_gamma   120.00000001
_symmetry_Int_Tables_number   1
_chemical_formula_structural   LiC4
_chemical_formula_sum   'Li6 C24'
_cell_volume   273.29337479
_cell_formula_units_Z   6
loop_
 _symmetry_equiv_pos_site_id
 _symmetry_equiv_pos_as_xyz
  1  'x, y, z'
loop_
 _atom_site_type_symbol
 _atom_site_label
 _atom_site_symmetry_multiplicity
 _atom_site_fract_x
 _atom_site_fract_y
 _atom_site_fract_z
 _atom_site_occupancy
  C  C0  1  0.01872388  0.38542873  -0.00000000  1
  C  C1  1  0.63329514  0.01872388  -0.00000000  1
  C  C2  1  0.61457127  0.63329514  -0.00000000  1
  C  C3  1  0.98127612  0.61457127  -0.00000000  1
  C  C4  1  0.36670486  0.98127612  0.00000000  1
  C  C5  1  0.38542873  0.36670486  -0.00000000  1
  C  C6  1  0.16621689  0.43222276  0.00000000  1
  C  C7  1  0.73399413  0.16621689  -0.00000000  1
  C  C8  1  0.56777724  0.73399413  -0.00000000  1
  C  C9  1  0.83378311  0.56777724  -0.00000000  1
  C  C10  1  0.26600587  0.83378311  0.00000000  1
  C  C11  1  0.43222276  0.26600587  0.00000000  1
  C  C12  1  0.22654603  0.42512983  0.50000000  1
  C  C13  1  0.80141620  0.22654603  0.50000000  1
  C  C14  1  0.57487017  0.80141620  0.50000000  1
  C  C15  1  0.77345397  0.57487017  0.50000000  1
  C  C16  1  0.19858380  0.77345397  0.50000000  1
  C  C17  1  0.42512983  0.19858380  0.50000000  1
  C  C18  1  0.33583572  0.38989073  0.50000000  1
  C  C19  1  0.94594500  0.33583572  0.50000000  1
  C  C20  1  0.61010927  0.94594500  0.50000000  1
  C  C21  1  0.66416428  0.61010927  0.50000000  1
  C  C22  1  0.05405500  0.66416428  0.50000000  1
  C  C23  1  0.38989073  0.05405500  0.50000000  1
  Li  Li24  1  0.22733700  0.17260368  -0.00000000  1
  Li  Li25  1  0.05473331  0.22733700  0.00000000  1
  Li  Li26  1  0.82739632  0.05473331  -0.00000000  1
  Li  Li27  1  0.77266300  0.82739632  0.00000000  1
  Li  Li28  1  0.94526669  0.77266300  0.00000000  1
  Li  Li29  1  0.17260368  0.94526669  0.00000000  1
