# generated using pymatgen
data_Fe2Ni13W5
_symmetry_space_group_name_H-M   'P 1'
_cell_length_a   5.80827922
_cell_length_b   5.75756869
_cell_length_c   7.25613817
_cell_angle_alpha   89.92388851
_cell_angle_beta   89.87216688
_cell_angle_gamma   90.11370410
_symmetry_Int_Tables_number   1
_chemical_formula_structural   Fe2Ni13W5
_chemical_formula_sum   'Fe2 Ni13 W5'
_cell_volume   242.65533048
_cell_formula_units_Z   1
loop_
 _symmetry_equiv_pos_site_id
 _symmetry_equiv_pos_as_xyz
  1  'x, y, z'
loop_
 _atom_site_type_symbol
 _atom_site_label
 _atom_site_symmetry_multiplicity
 _atom_site_fract_x
 _atom_site_fract_y
 _atom_site_fract_z
 _atom_site_occupancy
  Ni  Ni0  1  0.98895177  0.00391775  0.50208950  1
  Ni  Ni1  1  0.50228780  0.50338319  0.75625138  1
  Ni  Ni2  1  0.19816024  0.60849569  0.00135683  1
  Ni  Ni3  1  0.30119177  0.89400627  0.24144780  1
  Ni  Ni4  1  0.40375411  0.20291579  0.01033212  1
  Ni  Ni5  1  0.50059018  0.50084722  0.24999801  1
  Ni  Ni6  1  0.70041826  0.09204683  0.24513968  1
  Ni  Ni7  1  0.80281395  0.40070371  0.49727325  1
  Ni  Ni8  1  0.90175829  0.69580339  0.75307677  1
  Ni  Ni9  1  0.59733210  0.79739700  0.00324179  1
  Ni  Ni10  1  0.79039604  0.40815132  0.00104964  1
  Ni  Ni11  1  0.90399656  0.70263680  0.24734109  1
  Ni  Ni12  1  0.60995244  0.78791026  0.49559170  1
  Fe  Fe13  1  0.00530048  0.99620605  0.99323727  1
  Fe  Fe14  1  0.29784418  0.90944828  0.74879427  1
  W  W15  1  0.10920636  0.30069985  0.76927161  1
  W  W16  1  0.07990428  0.29360169  0.23673325  1
  W  W17  1  0.20775157  0.62986279  0.50108255  1
  W  W18  1  0.40867682  0.18201242  0.48568828  1
  W  W19  1  0.68971282  0.08995373  0.76100322  1
