# generated using pymatgen
data_Fe11Ni4W5
_symmetry_space_group_name_H-M   'P 1'
_cell_length_a   5.79498648
_cell_length_b   5.82935991
_cell_length_c   7.26820571
_cell_angle_alpha   89.87835026
_cell_angle_beta   90.03583274
_cell_angle_gamma   90.02975649
_symmetry_Int_Tables_number   1
_chemical_formula_structural   Fe11Ni4W5
_chemical_formula_sum   'Fe11 Ni4 W5'
_cell_volume   245.52707216
_cell_formula_units_Z   1
loop_
 _symmetry_equiv_pos_site_id
 _symmetry_equiv_pos_as_xyz
  1  'x, y, z'
loop_
 _atom_site_type_symbol
 _atom_site_label
 _atom_site_symmetry_multiplicity
 _atom_site_fract_x
 _atom_site_fract_y
 _atom_site_fract_z
 _atom_site_occupancy
  Ni  Ni0  1  0.98910719  0.00601655  0.50265405  1
  Ni  Ni1  1  0.79201085  0.40924016  0.99765659  1
  Ni  Ni2  1  0.90136169  0.70504915  0.24710408  1
  Ni  Ni3  1  0.61017323  0.79070245  0.49990878  1
  Fe  Fe4  1  0.99654237  0.98445015  0.99578045  1
  Fe  Fe5  1  0.29819387  0.89647445  0.75934936  1
  Fe  Fe6  1  0.50048640  0.50847861  0.75475326  1
  Fe  Fe7  1  0.20369817  0.61402577  0.99961655  1
  Fe  Fe8  1  0.29906559  0.88559354  0.23638920  1
  Fe  Fe9  1  0.40525908  0.20261301  0.01714631  1
  Fe  Fe10  1  0.51708559  0.51024746  0.24730727  1
  Fe  Fe11  1  0.70066019  0.08468654  0.24284077  1
  Fe  Fe12  1  0.80129272  0.40791828  0.50061776  1
  Fe  Fe13  1  0.89554752  0.69770741  0.75454085  1
  Fe  Fe14  1  0.59624250  0.78748368  0.00014474  1
  W  W15  1  0.11553615  0.29876070  0.76704770  1
  W  W16  1  0.08305588  0.30005166  0.23411270  1
  W  W17  1  0.20579732  0.63041193  0.50187822  1
  W  W18  1  0.40480624  0.18394251  0.47936866  1
  W  W19  1  0.68407744  0.09614600  0.76178267  1
