# generated using pymatgen
data_Fe8Ni7W5
_symmetry_space_group_name_H-M   'P 1'
_cell_length_a   5.78541510
_cell_length_b   5.82543232
_cell_length_c   7.28015039
_cell_angle_alpha   89.75042908
_cell_angle_beta   89.81348994
_cell_angle_gamma   89.84380087
_symmetry_Int_Tables_number   1
_chemical_formula_structural   Fe8Ni7W5
_chemical_formula_sum   'Fe8 Ni7 W5'
_cell_volume   245.35505947
_cell_formula_units_Z   1
loop_
 _symmetry_equiv_pos_site_id
 _symmetry_equiv_pos_as_xyz
  1  'x, y, z'
loop_
 _atom_site_type_symbol
 _atom_site_label
 _atom_site_symmetry_multiplicity
 _atom_site_fract_x
 _atom_site_fract_y
 _atom_site_fract_z
 _atom_site_occupancy
  Ni  Ni0  1  0.98507554  0.00617472  0.49972605  1
  Ni  Ni1  1  0.80456574  0.40504049  0.49953789  1
  Ni  Ni2  1  0.89809529  0.69856083  0.75246061  1
  Ni  Ni3  1  0.59724496  0.79369693  0.00210636  1
  Ni  Ni4  1  0.79258606  0.41132457  0.99760603  1
  Ni  Ni5  1  0.89706384  0.70247200  0.24902937  1
  Ni  Ni6  1  0.60825137  0.78873981  0.49935661  1
  Fe  Fe7  1  0.99847390  0.98225530  0.00021831  1
  Fe  Fe8  1  0.29782938  0.89742183  0.76566451  1
  Fe  Fe9  1  0.50318609  0.50618595  0.75467031  1
  Fe  Fe10  1  0.20563403  0.60671719  0.00380763  1
  Fe  Fe11  1  0.30327807  0.88912737  0.23292759  1
  Fe  Fe12  1  0.40752978  0.20348954  0.01409852  1
  Fe  Fe13  1  0.50822752  0.50195182  0.25203451  1
  Fe  Fe14  1  0.69950083  0.08822072  0.24017688  1
  W  W15  1  0.11612467  0.30377938  0.76558218  1
  W  W16  1  0.08318063  0.30155766  0.23318350  1
  W  W17  1  0.20352146  0.63385242  0.49926804  1
  W  W18  1  0.40266452  0.18322435  0.48087994  1
  W  W19  1  0.68796631  0.09620713  0.75766517  1
