# generated using pymatgen
data_MnFeCoNiAu
_symmetry_space_group_name_H-M   'P 1'
_cell_length_a   5.74256407
_cell_length_b   5.71818514
_cell_length_c   7.36229243
_cell_angle_alpha   90.24855816
_cell_angle_beta   90.13809125
_cell_angle_gamma   89.57183936
_symmetry_Int_Tables_number   1
_chemical_formula_structural   MnFeCoNiAu
_chemical_formula_sum   'Mn4 Fe4 Co4 Ni4 Au4'
_cell_volume   241.74621599
_cell_formula_units_Z   4
loop_
 _symmetry_equiv_pos_site_id
 _symmetry_equiv_pos_as_xyz
  1  'x, y, z'
loop_
 _atom_site_type_symbol
 _atom_site_label
 _atom_site_symmetry_multiplicity
 _atom_site_fract_x
 _atom_site_fract_y
 _atom_site_fract_z
 _atom_site_occupancy
  Au  Au0  1  0.07995457  0.28655038  0.74401766  1
  Au  Au1  1  0.20133050  0.62391001  0.99266510  1
  Au  Au2  1  0.29748043  0.90607584  0.27198304  1
  Au  Au3  1  0.41201845  0.18655311  0.99666142  1
  Co  Co4  1  0.30669384  0.88855967  0.71660086  1
  Co  Co5  1  0.52769766  0.51002947  0.73911256  1
  Co  Co6  1  0.61009953  0.78352470  0.50355771  1
  Co  Co7  1  0.88011157  0.70165268  0.25711731  1
  Mn  Mn8  1  0.94526968  0.00995471  0.01001925  1
  Mn  Mn9  1  0.21940558  0.58661502  0.51075254  1
  Mn  Mn10  1  0.41342374  0.22933614  0.50380983  1
  Mn  Mn11  1  0.89118633  0.71398207  0.73126637  1
  Fe  Fe12  1  0.71728979  0.10341140  0.26362873  1
  Fe  Fe13  1  0.78312010  0.40545348  0.49245674  1
  Fe  Fe14  1  0.64627263  0.78031230  0.98817153  1
  Fe  Fe15  1  0.80334174  0.40092823  0.02181287  1
  Ni  Ni16  1  0.98040417  0.99033131  0.49919565  1
  Ni  Ni17  1  0.08814009  0.31357985  0.26605830  1
  Ni  Ni18  1  0.68634028  0.08382191  0.73403764  1
  Ni  Ni19  1  0.51041931  0.49541772  0.25707485  1
