# generated using pymatgen
data_YMnFeCoNi
_symmetry_space_group_name_H-M   'P 1'
_cell_length_a   5.75361299
_cell_length_b   5.70476844
_cell_length_c   9.41674034
_cell_angle_alpha   89.53236953
_cell_angle_beta   80.57864736
_cell_angle_gamma   97.36668172
_symmetry_Int_Tables_number   1
_chemical_formula_structural   YMnFeCoNi
_chemical_formula_sum   'Y4 Mn4 Fe4 Co4 Ni4'
_cell_volume   302.26568825
_cell_formula_units_Z   4
loop_
 _symmetry_equiv_pos_site_id
 _symmetry_equiv_pos_as_xyz
  1  'x, y, z'
loop_
 _atom_site_type_symbol
 _atom_site_label
 _atom_site_symmetry_multiplicity
 _atom_site_fract_x
 _atom_site_fract_y
 _atom_site_fract_z
 _atom_site_occupancy
  Y  Y0  1  -0.00591328  0.24508025  0.78189277  1
  Y  Y1  1  0.26172328  0.77003935  0.89237518  1
  Y  Y2  1  0.37072914  0.83954665  0.23713233  1
  Y  Y3  1  0.48532327  0.30813021  0.00282042  1
  Co  Co4  1  0.21047710  0.81184086  0.62931498  1
  Co  Co5  1  0.44996571  0.45803890  0.68396721  1
  Co  Co6  1  0.58489998  0.76814471  0.49589127  1
  Co  Co7  1  0.90613283  0.71694245  0.31996501  1
  Mn  Mn8  1  0.92914970  0.02310683  0.10353840  1
  Mn  Mn9  1  0.19151382  0.49437603  0.49364776  1
  Mn  Mn10  1  0.39097304  0.16175572  0.49729862  1
  Mn  Mn11  1  0.79707613  0.72442309  0.70405414  1
  Fe  Fe12  1  0.75553109  0.09826228  0.33011704  1
  Fe  Fe13  1  0.78627976  0.41761647  0.50337284  1
  Fe  Fe14  1  0.75085509  0.77240256  0.94741573  1
  Fe  Fe15  1  0.89802874  0.52452293  0.10870243  1
  Ni  Ni16  1  -0.02684845  0.03630329  0.50794463  1
  Ni  Ni17  1  0.13640511  0.32644296  0.26619044  1
  Ni  Ni18  1  0.57251775  0.06581429  0.69379478  1
  Ni  Ni19  1  0.55518014  0.43721018  0.30056402  1
