# generated using pymatgen
data_Fe12Ni3W5
_symmetry_space_group_name_H-M   'P 1'
_cell_length_a   5.81672810
_cell_length_b   5.81589659
_cell_length_c   7.16001071
_cell_angle_alpha   89.03609559
_cell_angle_beta   89.40239996
_cell_angle_gamma   88.75715045
_symmetry_Int_Tables_number   1
_chemical_formula_structural   Fe12Ni3W5
_chemical_formula_sum   'Fe12 Ni3 W5'
_cell_volume   242.11597838
_cell_formula_units_Z   1
loop_
 _symmetry_equiv_pos_site_id
 _symmetry_equiv_pos_as_xyz
  1  'x, y, z'
loop_
 _atom_site_type_symbol
 _atom_site_label
 _atom_site_symmetry_multiplicity
 _atom_site_fract_x
 _atom_site_fract_y
 _atom_site_fract_z
 _atom_site_occupancy
  Ni  Ni0  1  0.98810968  0.00435191  0.50012596  1
  Ni  Ni1  1  0.90031034  0.70753245  0.24883978  1
  Ni  Ni2  1  0.61047687  0.79180035  0.49410600  1
  Fe  Fe3  1  0.00027986  0.98299688  0.99538997  1
  Fe  Fe4  1  0.30013874  0.89413638  0.76051092  1
  Fe  Fe5  1  0.51234082  0.50984645  0.75554086  1
  Fe  Fe6  1  0.20472176  0.61431974  0.00002091  1
  Fe  Fe7  1  0.30401802  0.88729082  0.23470351  1
  Fe  Fe8  1  0.41128836  0.20575336  0.01703918  1
  Fe  Fe9  1  0.51761382  0.50580760  0.24846801  1
  Fe  Fe10  1  0.69763575  0.10026268  0.24282605  1
  Fe  Fe11  1  0.79659672  0.40631589  0.49908314  1
  Fe  Fe12  1  0.89390213  0.69412048  0.75531687  1
  Fe  Fe13  1  0.59973507  0.79146438  0.00798865  1
  Fe  Fe14  1  0.78458249  0.41091969  0.99825024  1
  W  W15  1  0.10752774  0.29788331  0.77098586  1
  W  W16  1  0.07704382  0.29542981  0.22939139  1
  W  W17  1  0.20505644  0.62849140  0.50051230  1
  W  W18  1  0.40118173  0.18236318  0.48059616  1
  W  W19  1  0.68743984  0.08891325  0.76030423  1
