# generated using pymatgen
data_TiAlN2
_symmetry_space_group_name_H-M   'P 1'
_cell_length_a   6.84861498
_cell_length_b   6.84999352
_cell_length_c   8.43124068
_cell_angle_alpha   90.00545112
_cell_angle_beta   90.15391369
_cell_angle_gamma   120.45885450
_symmetry_Int_Tables_number   1
_chemical_formula_structural   TiAlN2
_chemical_formula_sum   'Ti8 Al8 N16'
_cell_volume   340.94643955
_cell_formula_units_Z   8
loop_
 _symmetry_equiv_pos_site_id
 _symmetry_equiv_pos_as_xyz
  1  'x, y, z'
loop_
 _atom_site_type_symbol
 _atom_site_label
 _atom_site_symmetry_multiplicity
 _atom_site_fract_x
 _atom_site_fract_y
 _atom_site_fract_z
 _atom_site_occupancy
  Ti  Ti0  1  0.16152062  0.32600178  0.22620028  1
  Ti  Ti1  1  0.16021214  0.32406941  0.71508051  1
  Ti  Ti2  1  0.31539032  0.16206354  0.46869905  1
  Ti  Ti3  1  0.83370260  0.16358979  0.97464655  1
  Ti  Ti4  1  0.84129464  0.16188435  0.46758624  1
  Ti  Ti5  1  0.68414707  0.84269059  0.22266836  1
  Ti  Ti6  1  0.82977637  0.66628542  0.97505787  1
  Ti  Ti7  1  0.83792484  0.68052847  0.46487710  1
  Al  Al8  1  0.33407358  0.16459067  0.97143018  1
  Al  Al9  1  0.17346121  0.83240039  0.21809046  1
  Al  Al10  1  0.33237289  0.66561996  0.97032810  1
  Al  Al11  1  0.16799748  0.83114344  0.72182019  1
  Al  Al12  1  0.33486256  0.67374080  0.46971094  1
  Al  Al13  1  0.66269038  0.33322834  0.22683001  1
  Al  Al14  1  0.66387483  0.33335867  0.71544834  1
  Al  Al15  1  0.66103458  0.83040104  0.71837142  1
  N  N16  1  0.18238337  0.36281509  0.47031821  1
  N  N17  1  0.34206780  0.15758034  0.21360695  1
  N  N18  1  0.18013415  0.33696421  0.96943740  1
  N  N19  1  0.33583660  0.15901744  0.72596343  1
  N  N20  1  0.17599460  0.82584648  0.47084999  1
  N  N21  1  0.33645307  0.67380998  0.21542206  1
  N  N22  1  0.17465313  0.83564038  0.97008054  1
  N  N23  1  0.33219889  0.67196153  0.72573417  1
  N  N24  1  0.66099159  0.33581115  0.47258528  1
  N  N25  1  0.82468125  0.18188252  0.22001404  1
  N  N26  1  0.65877087  0.33241565  0.96842136  1
  N  N27  1  0.81661582  0.16136299  0.72206004  1
  N  N28  1  0.64612384  0.82238060  0.47978756  1
  N  N29  1  0.84542894  0.65508336  0.22069177  1
  N  N30  1  0.65803822  0.82683973  0.96265795  1
  N  N31  1  0.83529175  0.66899192  0.72152354  1
