# generated using pymatgen
data_TiAlN2
_symmetry_space_group_name_H-M   'P 1'
_cell_length_a   6.81049550
_cell_length_b   6.81314390
_cell_length_c   8.47429129
_cell_angle_alpha   90.69263690
_cell_angle_beta   90.00000000
_cell_angle_gamma   119.98714209
_symmetry_Int_Tables_number   1
_chemical_formula_structural   TiAlN2
_chemical_formula_sum   'Ti8 Al8 N16'
_cell_volume   340.54479300
_cell_formula_units_Z   8
loop_
 _symmetry_equiv_pos_site_id
 _symmetry_equiv_pos_as_xyz
  1  'x, y, z'
loop_
 _atom_site_type_symbol
 _atom_site_label
 _atom_site_symmetry_multiplicity
 _atom_site_fract_x
 _atom_site_fract_y
 _atom_site_fract_z
 _atom_site_occupancy
  Ti  Ti0  1  0.16392713  0.32785423  0.22741712  1
  Ti  Ti1  1  0.33230042  0.16273982  0.46437307  1
  Ti  Ti2  1  0.16856058  0.83709221  0.22672706  1
  Ti  Ti3  1  0.33546504  0.67093010  0.46362105  1
  Ti  Ti4  1  0.66485895  0.32971789  0.71529782  1
  Ti  Ti5  1  0.83043938  0.16273982  0.46437307  1
  Ti  Ti6  1  0.66853164  0.83709221  0.22672706  1
  Ti  Ti7  1  0.83553257  0.67106513  0.97549140  1
  Al  Al8  1  0.33394581  0.16829978  0.97008231  1
  Al  Al9  1  0.16658047  0.33316095  0.72292200  1
  Al  Al10  1  0.33297284  0.66594567  0.96792619  1
  Al  Al11  1  0.16661686  0.83179777  0.72098563  1
  Al  Al12  1  0.66760887  0.33521773  0.22067127  1
  Al  Al13  1  0.83435396  0.16829978  0.97008231  1
  Al  Al14  1  0.66518091  0.83179777  0.72098563  1
  Al  Al15  1  0.83302083  0.66604168  0.47064909  1
  N  N16  1  0.16760733  0.33521465  0.48144942  1
  N  N17  1  0.35105583  0.17715039  0.21041122  1
  N  N18  1  0.16624931  0.33249861  0.96371205  1
  N  N19  1  0.32645930  0.16170083  0.72701378  1
  N  N20  1  0.14938144  0.82272687  0.48050627  1
  N  N21  1  0.33151336  0.66302674  0.20954044  1
  N  N22  1  0.17413928  0.83840001  0.96399658  1
  N  N23  1  0.33325683  0.66651366  0.72728342  1
  N  N24  1  0.67385606  0.34771212  0.46390602  1
  N  N25  1  0.82609456  0.17715039  0.21041122  1
  N  N26  1  0.66532155  0.33064308  0.97030993  1
  N  N27  1  0.83524152  0.16170083  0.72701378  1
  N  N28  1  0.67334544  0.82272687  0.48050627  1
  N  N29  1  0.82700380  0.65400760  0.22688316  1
  N  N30  1  0.66426072  0.83840001  0.96399658  1
  N  N31  1  0.83531742  0.67063483  0.72072772  1
