# generated using pymatgen
data_Ti3AlN4
_symmetry_space_group_name_H-M   'P 1'
_cell_length_a   6.90674737
_cell_length_b   6.90674736
_cell_length_c   8.47032565
_cell_angle_alpha   90.00153673
_cell_angle_beta   89.99846329
_cell_angle_gamma   120.19503000
_symmetry_Int_Tables_number   1
_chemical_formula_structural   Ti3AlN4
_chemical_formula_sum   'Ti12 Al4 N16'
_cell_volume   349.23762299
_cell_formula_units_Z   4
loop_
 _symmetry_equiv_pos_site_id
 _symmetry_equiv_pos_as_xyz
  1  'x, y, z'
loop_
 _atom_site_type_symbol
 _atom_site_label
 _atom_site_symmetry_multiplicity
 _atom_site_fract_x
 _atom_site_fract_y
 _atom_site_fract_z
 _atom_site_occupancy
  Ti  Ti0  1  0.16314817  0.33685183  0.22055424  1
  Ti  Ti1  1  0.33605554  0.16394446  0.97373925  1
  Ti  Ti2  1  0.33619189  0.16380811  0.46728793  1
  Ti  Ti3  1  0.16516525  0.82461108  0.22045062  1
  Ti  Ti4  1  0.33475843  0.67174321  0.97190086  1
  Ti  Ti5  1  0.17885462  0.84069866  0.72043340  1
  Ti  Ti6  1  0.33498769  0.67191327  0.46923339  1
  Ti  Ti7  1  0.67538892  0.33483475  0.22045062  1
  Ti  Ti8  1  0.82825679  0.16524157  0.97190086  1
  Ti  Ti9  1  0.65930134  0.32114538  0.72043340  1
  Ti  Ti10  1  0.82808673  0.16501231  0.46923339  1
  Ti  Ti11  1  0.65716707  0.84283293  0.72048947  1
  N  N12  1  0.16670243  0.33329757  0.47443047  1
  N  N13  1  0.33389850  0.16610150  0.22048188  1
  N  N14  1  0.16667507  0.33332493  0.96657514  1
  N  N15  1  0.32233075  0.17766925  0.72048769  1
  N  N16  1  0.14727940  0.82300416  0.47039963  1
  N  N17  1  0.35730318  0.67918259  0.22058911  1
  N  N18  1  0.14732800  0.82312355  0.97053268  1
  N  N19  1  0.32181676  0.64704455  0.72056797  1
  N  N20  1  0.67699584  0.35272060  0.47039963  1
  N  N21  1  0.82081741  0.14269682  0.22058911  1
  N  N22  1  0.67687645  0.35267200  0.97053268  1
  N  N23  1  0.85295545  0.17818324  0.72056797  1
  N  N24  1  0.67556831  0.82443169  0.46684257  1
  N  N25  1  0.82755811  0.67244189  0.22050085  1
  N  N26  1  0.67550536  0.82449464  0.97424686  1
  N  N27  1  0.83079373  0.66920627  0.72046599  1
  Al  Al28  1  0.16653297  0.33346703  0.72032669  1
  Al  Al29  1  0.67160403  0.82839597  0.22046837  1
  Al  Al30  1  0.83204639  0.66795361  0.96730381  1
  Al  Al31  1  0.83204945  0.66795055  0.47358336  1
