# generated using pymatgen
data_Ti3AlN4
_symmetry_space_group_name_H-M   'P 1'
_cell_length_a   6.90657666
_cell_length_b   6.88651731
_cell_length_c   8.47007897
_cell_angle_alpha   90.00000000
_cell_angle_beta   89.99627642
_cell_angle_gamma   119.90397025
_symmetry_Int_Tables_number   1
_chemical_formula_structural   Ti3AlN4
_chemical_formula_sum   'Ti12 Al4 N16'
_cell_volume   349.22072270
_cell_formula_units_Z   4
loop_
 _symmetry_equiv_pos_site_id
 _symmetry_equiv_pos_as_xyz
  1  'x, y, z'
loop_
 _atom_site_type_symbol
 _atom_site_label
 _atom_site_symmetry_multiplicity
 _atom_site_fract_x
 _atom_site_fract_y
 _atom_site_fract_z
 _atom_site_occupancy
  Ti  Ti0  1  0.16305071  0.33499392  0.21925540  1
  Ti  Ti1  1  0.32628883  0.16314442  0.97057758  1
  Ti  Ti2  1  0.16304842  0.33475138  0.72189624  1
  Ti  Ti3  1  0.16305071  0.82805677  0.21925540  1
  Ti  Ti4  1  0.16304842  0.82829702  0.72189624  1
  Ti  Ti5  1  0.31433773  0.65716887  0.47049088  1
  Ti  Ti6  1  0.67238513  0.33619256  0.21729603  1
  Ti  Ti7  1  0.84053355  0.16515246  0.97044949  1
  Ti  Ti8  1  0.67213336  0.33606667  0.72374971  1
  Ti  Ti9  1  0.83818000  0.17886063  0.47043214  1
  Ti  Ti10  1  0.84053355  0.67538110  0.97044949  1
  Ti  Ti11  1  0.83818000  0.65931937  0.47043214  1
  N  N12  1  0.17477729  0.32184120  0.47057792  1
  N  N13  1  0.33339314  0.16669658  0.22444270  1
  N  N14  1  0.17810476  0.35729398  0.97060011  1
  N  N15  1  0.33338866  0.16669434  0.71657604  1
  N  N16  1  0.17477729  0.85293608  0.47057792  1
  N  N17  1  0.35112206  0.67556104  0.21683404  1
  N  N18  1  0.17810476  0.82081077  0.97060011  1
  N  N19  1  0.35101886  0.67550944  0.72427050  1
  N  N20  1  0.64467049  0.32233524  0.47048917  1
  N  N21  1  0.82425142  0.14725737  0.22039951  1
  N  N22  1  0.66779882  0.33389940  0.97048208  1
  N  N23  1  0.82421943  0.14732373  0.72053113  1
  N  N24  1  0.66156792  0.83078395  0.47045366  1
  N  N25  1  0.82425142  0.67699406  0.22039951  1
  N  N26  1  0.65510094  0.82755047  0.97052129  1
  N  N27  1  0.82421943  0.67689570  0.72053113  1
  Al  Al28  1  0.33309826  0.16654914  0.47025562  1
  Al  Al29  1  0.34316097  0.67158049  0.97043601  1
  Al  Al30  1  0.66408687  0.83204343  0.22355299  1
  Al  Al31  1  0.66411684  0.83205842  0.71728774  1
