# generated using pymatgen
data_Ti3AlN4
_symmetry_space_group_name_H-M   'P 1'
_cell_length_a   6.88418030
_cell_length_b   6.92197719
_cell_length_c   8.45898502
_cell_angle_alpha   90.24453679
_cell_angle_beta   90.00000000
_cell_angle_gamma   119.81953459
_symmetry_Int_Tables_number   1
_chemical_formula_structural   Ti3AlN4
_chemical_formula_sum   'Ti12 Al4 N16'
_cell_volume   349.71392371
_cell_formula_units_Z   4
loop_
 _symmetry_equiv_pos_site_id
 _symmetry_equiv_pos_as_xyz
  1  'x, y, z'
loop_
 _atom_site_type_symbol
 _atom_site_label
 _atom_site_symmetry_multiplicity
 _atom_site_fract_x
 _atom_site_fract_y
 _atom_site_fract_z
 _atom_site_occupancy
  Ti  Ti0  1  0.18066824  0.34179409  0.21861231  1
  Ti  Ti1  1  0.33627800  0.17255601  0.96867704  1
  Ti  Ti2  1  0.16636259  0.33165916  0.72184919  1
  Ti  Ti3  1  0.33601886  0.66279236  0.96846209  1
  Ti  Ti4  1  0.16531971  0.83063940  0.72337424  1
  Ti  Ti5  1  0.33500820  0.66695903  0.47295243  1
  Ti  Ti6  1  0.66112586  0.34179409  0.21861231  1
  Ti  Ti7  1  0.66529659  0.33165916  0.72184919  1
  Ti  Ti8  1  0.65983096  0.81966192  0.21962650  1
  Ti  Ti9  1  0.82677349  0.66279236  0.96846209  1
  Ti  Ti10  1  0.66677520  0.83355037  0.72132418  1
  Ti  Ti11  1  0.83195083  0.66695903  0.47295243  1
  N  N12  1  0.15923011  0.31800237  0.46944546  1
  N  N13  1  0.32484248  0.14968496  0.22682569  1
  N  N14  1  0.14708418  0.32272808  0.97011875  1
  N  N15  1  0.33193834  0.16387669  0.71220779  1
  N  N16  1  0.17104464  0.84208928  0.46727225  1
  N  N17  1  0.32242286  0.67685694  0.22136542  1
  N  N18  1  0.16874064  0.83748126  0.97622184  1
  N  N19  1  0.33303311  0.66367326  0.72096916  1
  N  N20  1  0.65877227  0.31800237  0.46944546  1
  N  N21  1  0.83513612  0.17027224  0.22248653  1
  N  N22  1  0.67564391  0.32272808  0.97011875  1
  N  N23  1  0.83456419  0.16912839  0.71730188  1
  N  N24  1  0.67481138  0.84962276  0.47026390  1
  N  N25  1  0.85443406  0.67685694  0.22136542  1
  N  N26  1  0.67817982  0.85635962  0.97104012  1
  N  N27  1  0.83064013  0.66367326  0.72096916  1
  Al  Al28  1  0.33158569  0.16317139  0.46856648  1
  Al  Al29  1  0.16843059  0.83686118  0.22029953  1
  Al  Al30  1  0.83356773  0.16713546  0.97816424  1
  Al  Al31  1  0.83448921  0.16897843  0.46479810  1
