# generated using pymatgen
data_Ti7AlN8
_symmetry_space_group_name_H-M   'P 1'
_cell_length_a   6.96552856
_cell_length_b   6.96610784
_cell_length_c   8.46326544
_cell_angle_alpha   90.00485306
_cell_angle_beta   90.00000000
_cell_angle_gamma   119.99724923
_symmetry_Int_Tables_number   1
_chemical_formula_structural   Ti7AlN8
_chemical_formula_sum   'Ti14 Al2 N16'
_cell_volume   355.65170893
_cell_formula_units_Z   2
loop_
 _symmetry_equiv_pos_site_id
 _symmetry_equiv_pos_as_xyz
  1  'x, y, z'
loop_
 _atom_site_type_symbol
 _atom_site_label
 _atom_site_symmetry_multiplicity
 _atom_site_fract_x
 _atom_site_fract_y
 _atom_site_fract_z
 _atom_site_occupancy
  Ti  Ti0  1  0.17624160  0.33798555  0.22198356  1
  Ti  Ti1  1  0.33773508  0.17547017  0.96900706  1
  Ti  Ti2  1  0.16665997  0.33322885  0.71946999  1
  Ti  Ti3  1  0.33288155  0.16576310  0.47162620  1
  Ti  Ti4  1  0.33829763  0.66215752  0.96901434  1
  Ti  Ti5  1  0.16642952  0.83285903  0.72198587  1
  Ti  Ti6  1  0.33337934  0.66664096  0.47154978  1
  Ti  Ti7  1  0.66174396  0.33798555  0.22198356  1
  Ti  Ti8  1  0.66656890  0.33322885  0.71946999  1
  Ti  Ti9  1  0.83352732  0.16705464  0.46900303  1
  Ti  Ti10  1  0.66227982  0.82455965  0.22194792  1
  Ti  Ti11  1  0.82385988  0.66215752  0.96901434  1
  Ti  Ti12  1  0.66701403  0.83402804  0.71941462  1
  Ti  Ti13  1  0.83326161  0.66664096  0.47154978  1
  N  N14  1  0.16557000  0.33249169  0.47062013  1
  N  N15  1  0.32304638  0.14609277  0.22072556  1
  N  N16  1  0.14701700  0.32348498  0.97033505  1
  N  N17  1  0.33226148  0.16452298  0.72043074  1
  N  N18  1  0.16627321  0.83254641  0.46628487  1
  N  N19  1  0.32355485  0.67667517  0.22067858  1
  N  N20  1  0.16641002  0.83282003  0.97414770  1
  N  N21  1  0.33288976  0.66738176  0.72039607  1
  N  N22  1  0.66692170  0.33249169  0.47062013  1
  N  N23  1  0.83369267  0.16738533  0.21687358  1
  N  N24  1  0.67646799  0.32348498  0.97033505  1
  N  N25  1  0.83363209  0.16726418  0.72470918  1
  N  N26  1  0.66765832  0.83531664  0.47056784  1
  N  N27  1  0.85312030  0.67667517  0.22067858  1
  N  N28  1  0.67702853  0.85405704  0.97028199  1
  N  N29  1  0.83449200  0.66738176  0.72039607  1
  Al  Al30  1  0.16640503  0.83281005  0.21704970  1
  Al  Al31  1  0.83367849  0.16735698  0.97384907  1
