# generated using pymatgen
data_Ti7AlN8
_symmetry_space_group_name_H-M   'P 1'
_cell_length_a   6.96777170
_cell_length_b   6.97081119
_cell_length_c   8.45220710
_cell_angle_alpha   90.00000003
_cell_angle_beta   90.17273501
_cell_angle_gamma   120.01443119
_symmetry_Int_Tables_number   1
_chemical_formula_structural   Ti7AlN8
_chemical_formula_sum   'Ti14 Al2 N16'
_cell_volume   355.47755856
_cell_formula_units_Z   2
loop_
 _symmetry_equiv_pos_site_id
 _symmetry_equiv_pos_as_xyz
  1  'x, y, z'
loop_
 _atom_site_type_symbol
 _atom_site_label
 _atom_site_symmetry_multiplicity
 _atom_site_fract_x
 _atom_site_fract_y
 _atom_site_fract_z
 _atom_site_occupancy
  Ti  Ti0  1  0.16210444  0.33580781  0.22231010  1
  Ti  Ti1  1  0.32626351  0.16313177  0.97211403  1
  Ti  Ti2  1  0.16722843  0.33370859  0.71985610  1
  Ti  Ti3  1  0.33306375  0.16653188  0.46919138  1
  Ti  Ti4  1  0.16210444  0.82629661  0.22231010  1
  Ti  Ti5  1  0.16722843  0.83351982  0.71985610  1
  Ti  Ti6  1  0.33103705  0.66551853  0.47105685  1
  Ti  Ti7  1  0.67390175  0.33695088  0.21881511  1
  Ti  Ti8  1  0.83823512  0.16440029  0.96869779  1
  Ti  Ti9  1  0.66664592  0.33332296  0.72179019  1
  Ti  Ti10  1  0.83245527  0.16611702  0.47113261  1
  Ti  Ti11  1  0.83823512  0.67383483  0.96869779  1
  Ti  Ti12  1  0.66854856  0.83427429  0.72000207  1
  Ti  Ti13  1  0.83245527  0.66633826  0.47113261  1
  N  N14  1  0.16684047  0.33480397  0.47125258  1
  N  N15  1  0.33189720  0.16594861  0.22034633  1
  N  N16  1  0.17686465  0.35472333  0.97147643  1
  N  N17  1  0.33321104  0.16660553  0.72089931  1
  N  N18  1  0.16684047  0.83203649  0.47125258  1
  N  N19  1  0.35013823  0.67506912  0.21724444  1
  N  N20  1  0.17686465  0.82214130  0.97147643  1
  N  N21  1  0.33702053  0.66851027  0.72578959  1
  N  N22  1  0.66651936  0.33325967  0.47006121  1
  N  N23  1  0.82354139  0.14552155  0.21952838  1
  N  N24  1  0.66827072  0.33413536  0.97061091  1
  N  N25  1  0.83271434  0.16497213  0.71973905  1
  N  N26  1  0.66265410  0.83132704  0.46521764  1
  N  N27  1  0.82354139  0.67801984  0.21952838  1
  N  N28  1  0.65037134  0.82518566  0.97380191  1
  N  N29  1  0.83271434  0.66774223  0.71973905  1
  Al  Al30  1  0.33695151  0.66847576  0.97373593  1
  Al  Al31  1  0.66353725  0.83176863  0.21733699  1
