# generated using pymatgen
data_Ti7AlN8
_symmetry_space_group_name_H-M   'P 1'
_cell_length_a   6.97145002
_cell_length_b   6.97145001
_cell_length_c   8.46601500
_cell_angle_alpha   89.98485649
_cell_angle_beta   90.01514349
_cell_angle_gamma   120.21422290
_symmetry_Int_Tables_number   1
_chemical_formula_structural   Ti7AlN8
_chemical_formula_sum   'Ti14 Al2 N16'
_cell_volume   355.56117851
_cell_formula_units_Z   2
loop_
 _symmetry_equiv_pos_site_id
 _symmetry_equiv_pos_as_xyz
  1  'x, y, z'
loop_
 _atom_site_type_symbol
 _atom_site_label
 _atom_site_symmetry_multiplicity
 _atom_site_fract_x
 _atom_site_fract_y
 _atom_site_fract_z
 _atom_site_occupancy
  Ti  Ti0  1  0.16311105  0.33688895  0.22047541  1
  Ti  Ti1  1  0.33345657  0.16654343  0.97406195  1
  Ti  Ti2  1  0.33345027  0.16654973  0.46689264  1
  Ti  Ti3  1  0.16169829  0.82439896  0.22052802  1
  Ti  Ti4  1  0.33283832  0.66706630  0.97042933  1
  Ti  Ti5  1  0.17528222  0.83838395  0.72046049  1
  Ti  Ti6  1  0.33276601  0.66694516  0.47060342  1
  Ti  Ti7  1  0.67560104  0.33830171  0.22052802  1
  Ti  Ti8  1  0.83293370  0.16716168  0.97042933  1
  Ti  Ti9  1  0.66161605  0.32471778  0.72046049  1
  Ti  Ti10  1  0.83305484  0.16723399  0.47060342  1
  Ti  Ti11  1  0.83351917  0.66648083  0.96705669  1
  Ti  Ti12  1  0.66313831  0.83686169  0.72051485  1
  Ti  Ti13  1  0.83351449  0.66648551  0.47395388  1
  N  N14  1  0.16680671  0.33319329  0.47500738  1
  N  N15  1  0.33224275  0.16775725  0.22044142  1
  N  N16  1  0.16679468  0.33320532  0.96596041  1
  N  N17  1  0.32293586  0.17706414  0.72047433  1
  N  N18  1  0.16723790  0.83326406  0.47049729  1
  N  N19  1  0.35337362  0.67590646  0.22052537  1
  N  N20  1  0.16725486  0.83330368  0.97048424  1
  N  N21  1  0.32388112  0.64676047  0.72051151  1
  N  N22  1  0.66673594  0.33276210  0.47049729  1
  N  N23  1  0.82409354  0.14662638  0.22052537  1
  N  N24  1  0.66669632  0.33274514  0.97048424  1
  N  N25  1  0.85323953  0.17611888  0.72051151  1
  N  N26  1  0.66666601  0.83333399  0.46599618  1
  N  N27  1  0.82303951  0.67696049  0.22051995  1
  N  N28  1  0.66667994  0.83332006  0.97499803  1
  N  N29  1  0.83215880  0.66784120  0.72048224  1
  Al  Al30  1  0.16704293  0.33295707  0.72055877  1
  Al  Al31  1  0.66713964  0.83286036  0.22052646  1
