# generated using pymatgen
data_Ti5Al3N8
_symmetry_space_group_name_H-M   'P 1'
_cell_length_a   6.88599597
_cell_length_b   6.89276635
_cell_length_c   8.45146183
_cell_angle_alpha   90.23745909
_cell_angle_beta   89.90106278
_cell_angle_gamma   120.21635216
_symmetry_Int_Tables_number   1
_chemical_formula_structural   Ti5Al3N8
_chemical_formula_sum   'Ti10 Al6 N16'
_cell_volume   346.63154009
_cell_formula_units_Z   2
loop_
 _symmetry_equiv_pos_site_id
 _symmetry_equiv_pos_as_xyz
  1  'x, y, z'
loop_
 _atom_site_type_symbol
 _atom_site_label
 _atom_site_symmetry_multiplicity
 _atom_site_fract_x
 _atom_site_fract_y
 _atom_site_fract_z
 _atom_site_occupancy
  Ti  Ti0  1  0.16519588  0.32910120  0.22816635  1
  Ti  Ti1  1  0.33149280  0.16649253  0.46816782  1
  Ti  Ti2  1  0.16566094  0.83423363  0.22769744  1
  Ti  Ti3  1  0.16594602  0.83544639  0.71285511  1
  Ti  Ti4  1  0.33203866  0.66530129  0.46836323  1
  Ti  Ti5  1  0.66631872  0.33717932  0.71240387  1
  Ti  Ti6  1  0.83407720  0.16625822  0.46922174  1
  Ti  Ti7  1  0.67099293  0.83372107  0.22827939  1
  Ti  Ti8  1  0.83462827  0.66795363  0.97099915  1
  Ti  Ti9  1  0.83245703  0.66590049  0.46896126  1
  Al  Al10  1  0.33468572  0.16844873  0.97008623  1
  Al  Al11  1  0.16593847  0.33458863  0.72537753  1
  Al  Al12  1  0.33422708  0.66555992  0.96973918  1
  Al  Al13  1  0.66577487  0.32906922  0.21660637  1
  Al  Al14  1  0.83421296  0.16709909  0.96889264  1
  Al  Al15  1  0.66408231  0.83633733  0.72344727  1
  N  N16  1  0.16590746  0.33330013  0.48300696  1
  N  N17  1  0.34749633  0.17462723  0.21030421  1
  N  N18  1  0.16646040  0.33222209  0.96675000  1
  N  N19  1  0.33050545  0.17362756  0.72811073  1
  N  N20  1  0.16884330  0.83443300  0.46975118  1
  N  N21  1  0.33429434  0.66464866  0.21226139  1
  N  N22  1  0.17540294  0.83774538  0.96937757  1
  N  N23  1  0.33822212  0.66169027  0.73024649  1
  N  N24  1  0.66400000  0.32772290  0.45780650  1
  N  N25  1  0.82716059  0.17318998  0.21197010  1
  N  N26  1  0.66518234  0.32659437  0.97003858  1
  N  N27  1  0.83749072  0.16254327  0.72834506  1
  N  N28  1  0.66437689  0.83432415  0.48227569  1
  N  N29  1  0.82470228  0.64849841  0.21763049  1
  N  N30  1  0.66481974  0.83821571  0.96652409  1
  N  N31  1  0.82740524  0.67392620  0.72233632  1
