# generated using pymatgen
data_Ti5Al3N8
_symmetry_space_group_name_H-M   'P 1'
_cell_length_a   6.87306600
_cell_length_b   6.87589877
_cell_length_c   8.46530820
_cell_angle_alpha   90.35814384
_cell_angle_beta   90.34812113
_cell_angle_gamma   119.92879743
_symmetry_Int_Tables_number   1
_chemical_formula_structural   Ti5Al3N8
_chemical_formula_sum   'Ti10 Al6 N16'
_cell_volume   346.68226032
_cell_formula_units_Z   2
loop_
 _symmetry_equiv_pos_site_id
 _symmetry_equiv_pos_as_xyz
  1  'x, y, z'
loop_
 _atom_site_type_symbol
 _atom_site_label
 _atom_site_symmetry_multiplicity
 _atom_site_fract_x
 _atom_site_fract_y
 _atom_site_fract_z
 _atom_site_occupancy
  Ti  Ti0  1  0.16110643  0.32826917  0.22178026  1
  Ti  Ti1  1  0.33167845  0.16304763  0.46606142  1
  Ti  Ti2  1  0.16459815  0.83587757  0.22042434  1
  Ti  Ti3  1  0.32876254  0.66361889  0.97919684  1
  Ti  Ti4  1  0.33576588  0.67069471  0.46170650  1
  Ti  Ti5  1  0.83607850  0.16905409  0.97712063  1
  Ti  Ti6  1  0.66881277  0.33125624  0.72053149  1
  Ti  Ti7  1  0.83048440  0.16375993  0.46404565  1
  Ti  Ti8  1  0.67124539  0.83893082  0.21933326  1
  Ti  Ti9  1  0.83706479  0.66917219  0.97482510  1
  Al  Al10  1  0.33451586  0.16701663  0.97118191  1
  Al  Al11  1  0.16931569  0.33359048  0.72170864  1
  Al  Al12  1  0.16752916  0.83234497  0.72044399  1
  Al  Al13  1  0.66401690  0.33701965  0.22048360  1
  Al  Al14  1  0.66540749  0.83018924  0.71920369  1
  Al  Al15  1  0.83322758  0.66630621  0.46992747  1
  N  N16  1  0.16772316  0.33327485  0.47886847  1
  N  N17  1  0.34938405  0.17531153  0.21330919  1
  N  N18  1  0.17551589  0.32543287  0.96190641  1
  N  N19  1  0.33035340  0.16250304  0.72290547  1
  N  N20  1  0.15112965  0.82615134  0.47833760  1
  N  N21  1  0.33307263  0.66610613  0.22050646  1
  N  N22  1  0.17423543  0.84906566  0.96256723  1
  N  N23  1  0.33261242  0.66619162  0.72048588  1
  N  N24  1  0.67085335  0.34730612  0.46764821  1
  N  N25  1  0.82127403  0.17876405  0.22055628  1
  N  N26  1  0.65397679  0.33022660  0.97333026  1
  N  N27  1  0.83796250  0.16142256  0.72057972  1
  N  N28  1  0.67398957  0.82445567  0.47913492  1
  N  N29  1  0.82513488  0.65156733  0.22759440  1
  N  N30  1  0.66588156  0.83209100  0.96214930  1
  N  N31  1  0.83729074  0.66998126  0.71814532  1
