# generated using pymatgen
data_Ti5Al3N8
_symmetry_space_group_name_H-M   'P 1'
_cell_length_a   6.90263640
_cell_length_b   6.85687025
_cell_length_c   8.44241193
_cell_angle_alpha   90.00476243
_cell_angle_beta   90.33808045
_cell_angle_gamma   119.79929995
_symmetry_Int_Tables_number   1
_chemical_formula_structural   Ti5Al3N8
_chemical_formula_sum   'Ti10 Al6 N16'
_cell_volume   346.73899073
_cell_formula_units_Z   2
loop_
 _symmetry_equiv_pos_site_id
 _symmetry_equiv_pos_as_xyz
  1  'x, y, z'
loop_
 _atom_site_type_symbol
 _atom_site_label
 _atom_site_symmetry_multiplicity
 _atom_site_fract_x
 _atom_site_fract_y
 _atom_site_fract_z
 _atom_site_occupancy
  Ti  Ti0  1  0.15926148  0.32109368  0.22064444  1
  Ti  Ti1  1  0.16297577  0.32546987  0.71572168  1
  Ti  Ti2  1  0.31320604  0.15664914  0.46924505  1
  Ti  Ti3  1  0.15970995  0.83816731  0.22056802  1
  Ti  Ti4  1  0.16322424  0.83751209  0.71574183  1
  Ti  Ti5  1  0.83687550  0.16253075  0.97537774  1
  Ti  Ti6  1  0.84012634  0.16183230  0.47034160  1
  Ti  Ti7  1  0.68657462  0.84323940  0.22183846  1
  Ti  Ti8  1  0.83722954  0.67473223  0.97535541  1
  Ti  Ti9  1  0.84053698  0.67866129  0.47031092  1
  Al  Al10  1  0.34408168  0.17209906  0.97132082  1
  Al  Al11  1  0.33235888  0.66604475  0.97207956  1
  Al  Al12  1  0.33616381  0.66793652  0.46305954  1
  Al  Al13  1  0.66362080  0.33194458  0.22768172  1
  Al  Al14  1  0.66787424  0.33404071  0.71896509  1
  Al  Al15  1  0.65614431  0.82804517  0.71957883  1
  N  N16  1  0.17698103  0.35614760  0.46850020  1
  N  N17  1  0.35446898  0.17732251  0.21222831  1
  N  N18  1  0.18165311  0.33933002  0.96784251  1
  N  N19  1  0.34966774  0.17488441  0.72785133  1
  N  N20  1  0.17746010  0.82089978  0.46849011  1
  N  N21  1  0.33612057  0.66786759  0.21533977  1
  N  N22  1  0.18207928  0.84238265  0.96785969  1
  N  N23  1  0.33230243  0.66601803  0.72243609  1
  N  N24  1  0.66377607  0.33202173  0.47562023  1
  N  N25  1  0.82226987  0.17891714  0.22252221  1
  N  N26  1  0.66792136  0.33414922  0.96870031  1
  N  N27  1  0.81822383  0.15777547  0.72316624  1
  N  N28  1  0.64534887  0.82256848  0.47881944  1
  N  N29  1  0.82278475  0.64378601  0.22251906  1
  N  N30  1  0.65047884  0.82519917  0.96311743  1
  N  N31  1  0.81849899  0.66073134  0.72315629  1
