# generated using pymatgen
data_Ti3Al5N8
_symmetry_space_group_name_H-M   'P 1'
_cell_length_a   6.81311365
_cell_length_b   6.81208848
_cell_length_c   8.42984585
_cell_angle_alpha   89.36700907
_cell_angle_beta   90.63151007
_cell_angle_gamma   120.40694314
_symmetry_Int_Tables_number   1
_chemical_formula_structural   Ti3Al5N8
_chemical_formula_sum   'Ti6 Al10 N16'
_cell_volume   337.40035793
_cell_formula_units_Z   2
loop_
 _symmetry_equiv_pos_site_id
 _symmetry_equiv_pos_as_xyz
  1  'x, y, z'
loop_
 _atom_site_type_symbol
 _atom_site_label
 _atom_site_symmetry_multiplicity
 _atom_site_fract_x
 _atom_site_fract_y
 _atom_site_fract_z
 _atom_site_occupancy
  Ti  Ti0  1  0.17113127  0.32815301  0.23309103  1
  Ti  Ti1  1  0.16612301  0.33325116  0.71526989  1
  Ti  Ti2  1  0.32655796  0.17293641  0.46442795  1
  Ti  Ti3  1  0.67337000  0.82704763  0.22660808  1
  Ti  Ti4  1  0.83382757  0.66662731  0.97574417  1
  Ti  Ti5  1  0.82888513  0.67190603  0.45787802  1
  Al  Al6  1  0.33518172  0.16477750  0.97083787  1
  Al  Al7  1  0.17440081  0.83252122  0.21973208  1
  Al  Al8  1  0.33317662  0.66563063  0.97191897  1
  Al  Al9  1  0.16607916  0.83293259  0.71909230  1
  Al  Al10  1  0.33259176  0.67377419  0.47132198  1
  Al  Al11  1  0.66725791  0.32614763  0.21966004  1
  Al  Al12  1  0.83388657  0.16691711  0.97186728  1
  Al  Al13  1  0.66692061  0.33446963  0.71895568  1
  Al  Al14  1  0.82563015  0.16756722  0.47110105  1
  Al  Al15  1  0.66493563  0.83526416  0.72014633  1
  N  N16  1  0.14873087  0.35076967  0.47643429  1
  N  N17  1  0.34738131  0.15262122  0.20871683  1
  N  N18  1  0.16811304  0.33136490  0.97141670  1
  N  N19  1  0.33676445  0.16312928  0.72447598  1
  N  N20  1  0.17043369  0.83175573  0.47128173  1
  N  N21  1  0.33205904  0.66996385  0.21981249  1
  N  N22  1  0.17451155  0.83476400  0.96554639  1
  N  N23  1  0.33489056  0.67385383  0.72547792  1
  N  N24  1  0.66787465  0.33010530  0.47122835  1
  N  N25  1  0.82952549  0.16826625  0.21977326  1
  N  N26  1  0.66515628  0.32610208  0.96556724  1
  N  N27  1  0.82555686  0.16528550  0.72550953  1
  N  N28  1  0.65251624  0.84742609  0.48232090  1
  N  N29  1  0.85128958  0.64922784  0.21458953  1
  N  N30  1  0.66326714  0.83674070  0.96656569  1
  N  N31  1  0.83197339  0.66870032  0.71963039  1
