# generated using pymatgen
data_Ti3Al5N8
_symmetry_space_group_name_H-M   'P 1'
_cell_length_a   6.80773178
_cell_length_b   6.80775925
_cell_length_c   8.40659666
_cell_angle_alpha   90.26020785
_cell_angle_beta   90.24991875
_cell_angle_gamma   120.21668198
_symmetry_Int_Tables_number   1
_chemical_formula_structural   Ti3Al5N8
_chemical_formula_sum   'Ti6 Al10 N16'
_cell_volume   336.65706979
_cell_formula_units_Z   2
loop_
 _symmetry_equiv_pos_site_id
 _symmetry_equiv_pos_as_xyz
  1  'x, y, z'
loop_
 _atom_site_type_symbol
 _atom_site_label
 _atom_site_symmetry_multiplicity
 _atom_site_fract_x
 _atom_site_fract_y
 _atom_site_fract_z
 _atom_site_occupancy
  Al  Al0  1  0.17436955  0.34217201  0.22000594  1
  Al  Al1  1  0.33545449  0.16623416  0.97152750  1
  Al  Al2  1  0.16998494  0.83342434  0.21571396  1
  Al  Al3  1  0.33401495  0.66640742  0.97048470  1
  Al  Al4  1  0.16657299  0.82991042  0.72528267  1
  Al  Al5  1  0.33093391  0.66942747  0.47043624  1
  Al  Al6  1  0.66709041  0.33611992  0.22552233  1
  Al  Al7  1  0.66349345  0.33253274  0.71547217  1
  Al  Al8  1  0.83376121  0.66427574  0.96947819  1
  Al  Al9  1  0.65814682  0.82567863  0.72093746  1
  N  N10  1  0.18392521  0.36029269  0.45983191  1
  N  N11  1  0.33457424  0.16631323  0.21437886  1
  N  N12  1  0.17625237  0.33570497  0.97405460  1
  N  N13  1  0.33674527  0.15870135  0.72691626  1
  N  N14  1  0.17550554  0.82432322  0.47055011  1
  N  N15  1  0.33369413  0.67184612  0.21434689  1
  N  N16  1  0.16697040  0.83298994  0.97049987  1
  N  N17  1  0.32862899  0.66674597  0.72670307  1
  N  N18  1  0.66376766  0.33570711  0.47049753  1
  N  N19  1  0.84490683  0.18866270  0.21686224  1
  N  N20  1  0.66256625  0.33714627  0.97051268  1
  N  N21  1  0.81137987  0.15515016  0.72412926  1
  N  N22  1  0.64005016  0.81609638  0.48116474  1
  N  N23  1  0.84121938  0.66286485  0.21410806  1
  N  N24  1  0.66475077  0.82390560  0.96696043  1
  N  N25  1  0.83361059  0.66506048  0.72663371  1
  Ti  Ti26  1  0.15431370  0.31770101  0.71406475  1
  Ti  Ti27  1  0.31246832  0.15899048  0.47095398  1
  Ti  Ti28  1  0.83391905  0.16617573  0.97047695  1
  Ti  Ti29  1  0.84339464  0.15666396  0.47049722  1
  Ti  Ti30  1  0.68268794  0.84579748  0.22695080  1
  Ti  Ti31  1  0.84084604  0.68697747  0.47004488  1
