# generated using pymatgen
data_Ti3Al5N8
_symmetry_space_group_name_H-M   'P 1'
_cell_length_a   6.76136436
_cell_length_b   6.79272915
_cell_length_c   8.44869535
_cell_angle_alpha   90.58443496
_cell_angle_beta   90.00000000
_cell_angle_gamma   119.84737462
_symmetry_Int_Tables_number   1
_chemical_formula_structural   Ti3Al5N8
_chemical_formula_sum   'Ti6 Al10 N16'
_cell_volume   336.53850385
_cell_formula_units_Z   2
loop_
 _symmetry_equiv_pos_site_id
 _symmetry_equiv_pos_as_xyz
  1  'x, y, z'
loop_
 _atom_site_type_symbol
 _atom_site_label
 _atom_site_symmetry_multiplicity
 _atom_site_fract_x
 _atom_site_fract_y
 _atom_site_fract_z
 _atom_site_occupancy
  Al  Al0  1  0.16576933  0.33153864  0.22028754  1
  Al  Al1  1  0.33245822  0.16856448  0.97021883  1
  Al  Al2  1  0.16617148  0.33234297  0.71849457  1
  Al  Al3  1  0.33157636  0.66315272  0.96639572  1
  Al  Al4  1  0.16414707  0.83036495  0.72431666  1
  Al  Al5  1  0.67046025  0.34092049  0.21702339  1
  Al  Al6  1  0.83610626  0.16856448  0.97021883  1
  Al  Al7  1  0.83358304  0.66716609  0.96872323  1
  Al  Al8  1  0.66621788  0.83036495  0.72431666  1
  Al  Al9  1  0.83413714  0.66827431  0.47712271  1
  N  N10  1  0.16604382  0.33208763  0.46995069  1
  N  N11  1  0.34037195  0.18053966  0.21219425  1
  N  N12  1  0.16687752  0.33375502  0.96871608  1
  N  N13  1  0.32062830  0.15932035  0.72783918  1
  N  N14  1  0.14549323  0.82304778  0.48061618  1
  N  N15  1  0.32620590  0.65241182  0.21118005  1
  N  N16  1  0.16850227  0.83467769  0.96743183  1
  N  N17  1  0.33173343  0.66346685  0.72668620  1
  N  N18  1  0.68005873  0.36011745  0.45942634  1
  N  N19  1  0.84016770  0.18053966  0.21219425  1
  N  N20  1  0.66727787  0.33455574  0.97256086  1
  N  N21  1  0.83869204  0.15932035  0.72783918  1
  N  N22  1  0.67755456  0.82304778  0.48061618  1
  N  N23  1  0.83424424  0.66848848  0.21629182  1
  N  N24  1  0.66617543  0.83467769  0.96743183  1
  N  N25  1  0.83308308  0.66616616  0.72607504  1
  Ti  Ti26  1  0.34369837  0.15722940  0.46879395  1
  Ti  Ti27  1  0.17585615  0.83752299  0.22676030  1
  Ti  Ti28  1  0.34210079  0.68420160  0.46761142  1
  Ti  Ti29  1  0.65940975  0.31881947  0.71311190  1
  Ti  Ti30  1  0.81353100  0.15722940  0.46879395  1
  Ti  Ti31  1  0.66166684  0.83752299  0.22676030  1
