# generated using pymatgen
data_TiAl3N4
_symmetry_space_group_name_H-M   'P 1'
_cell_length_a   6.75231390
_cell_length_b   6.74969866
_cell_length_c   8.43809782
_cell_angle_alpha   90.52765838
_cell_angle_beta   89.55593369
_cell_angle_gamma   120.45344472
_symmetry_Int_Tables_number   1
_chemical_formula_structural   TiAl3N4
_chemical_formula_sum   'Ti4 Al12 N16'
_cell_volume   331.50373693
_cell_formula_units_Z   4
loop_
 _symmetry_equiv_pos_site_id
 _symmetry_equiv_pos_as_xyz
  1  'x, y, z'
loop_
 _atom_site_type_symbol
 _atom_site_label
 _atom_site_symmetry_multiplicity
 _atom_site_fract_x
 _atom_site_fract_y
 _atom_site_fract_z
 _atom_site_occupancy
  Ti  Ti0  1  0.15307149  0.32463704  0.22614498  1
  Ti  Ti1  1  0.83930712  0.15745045  0.45725404  1
  Ti  Ti2  1  0.67554301  0.84511007  0.22628923  1
  Ti  Ti3  1  0.82895937  0.66716640  0.97500528  1
  Al  Al4  1  0.33148787  0.16649153  0.96766002  1
  Al  Al5  1  0.16766886  0.33348145  0.72061773  1
  Al  Al6  1  0.33366553  0.16543797  0.47303616  1
  Al  Al7  1  0.17044810  0.83434596  0.22619871  1
  Al  Al8  1  0.33232984  0.66631983  0.96847997  1
  Al  Al9  1  0.16840859  0.83333185  0.71991534  1
  Al  Al10  1  0.33401585  0.66552589  0.47555632  1
  Al  Al11  1  0.66038322  0.33455718  0.22536118  1
  Al  Al12  1  0.83125956  0.17189481  0.96475688  1
  Al  Al13  1  0.66706473  0.33231957  0.71480125  1
  Al  Al14  1  0.66690096  0.83391567  0.71846946  1
  Al  Al15  1  0.83529440  0.66512728  0.47152275  1
  N  N16  1  0.18439474  0.34076713  0.48146149  1
  N  N17  1  0.33560112  0.16004389  0.21892709  1
  N  N18  1  0.16809023  0.33293152  0.96522629  1
  N  N19  1  0.33347887  0.16461968  0.72116321  1
  N  N20  1  0.16998430  0.83284672  0.47260897  1
  N  N21  1  0.32958975  0.66994904  0.22302997  1
  N  N22  1  0.17246973  0.83594306  0.97055000  1
  N  N23  1  0.33184505  0.66853988  0.72465349  1
  N  N24  1  0.66250222  0.33463770  0.46868738  1
  N  N25  1  0.82066587  0.18026018  0.20140959  1
  N  N26  1  0.65965364  0.33205524  0.96503633  1
  N  N27  1  0.83334171  0.16883145  0.72461472  1
  N  N28  1  0.65872348  0.81407097  0.48186913  1
  N  N29  1  0.84299376  0.66165471  0.22475564  1
  N  N30  1  0.66427147  0.83866673  0.96333609  1
  N  N31  1  0.83658557  0.66706912  0.71760127  1
