# generated using pymatgen
data_TiAl3N4
_symmetry_space_group_name_H-M   'P 1'
_cell_length_a   6.76746788
_cell_length_b   6.70837242
_cell_length_c   8.41169444
_cell_angle_alpha   90.21789381
_cell_angle_beta   89.67932845
_cell_angle_gamma   119.85541391
_symmetry_Int_Tables_number   1
_chemical_formula_structural   TiAl3N4
_chemical_formula_sum   'Ti4 Al12 N16'
_cell_volume   331.19310695
_cell_formula_units_Z   4
loop_
 _symmetry_equiv_pos_site_id
 _symmetry_equiv_pos_as_xyz
  1  'x, y, z'
loop_
 _atom_site_type_symbol
 _atom_site_label
 _atom_site_symmetry_multiplicity
 _atom_site_fract_x
 _atom_site_fract_y
 _atom_site_fract_z
 _atom_site_occupancy
  Al  Al0  1  0.17523736  0.33867790  0.21772744  1
  Al  Al1  1  0.33200701  0.16589315  0.96989013  1
  Al  Al2  1  0.16664512  0.33278105  0.72100222  1
  Al  Al3  1  0.33318770  0.16521977  0.47277197  1
  Al  Al4  1  0.17028243  0.83435202  0.22238282  1
  Al  Al5  1  0.32542967  0.66376107  0.96849626  1
  Al  Al6  1  0.16644524  0.83253270  0.71849356  1
  Al  Al7  1  0.33221790  0.66494210  0.46964139  1
  Al  Al8  1  0.66394860  0.33571695  0.22299706  1
  Al  Al9  1  0.66669700  0.33314271  0.72055832  1
  Al  Al10  1  0.66067747  0.82882483  0.71757120  1
  Al  Al11  1  0.83528503  0.66508623  0.47158463  1
  N  N12  1  0.17563691  0.33464836  0.47112344  1
  N  N13  1  0.33479345  0.16717636  0.22182601  1
  N  N14  1  0.17666785  0.33677330  0.96926770  1
  N  N15  1  0.33433433  0.16645718  0.72087957  1
  N  N16  1  0.16840047  0.83416709  0.47081123  1
  N  N17  1  0.32867285  0.66557706  0.21942366  1
  N  N18  1  0.17425730  0.83891148  0.96943310  1
  N  N19  1  0.32711659  0.66359988  0.71632719  1
  N  N20  1  0.65878868  0.33276297  0.47334097  1
  N  N21  1  0.84893262  0.19432774  0.22389930  1
  N  N22  1  0.65608870  0.33139619  0.97332784  1
  N  N23  1  0.83496691  0.16749017  0.72001286  1
  N  N24  1  0.65962825  0.82008133  0.47653349  1
  N  N25  1  0.84369006  0.66042194  0.23108750  1
  N  N26  1  0.64296178  0.82055301  0.95480801  1
  N  N27  1  0.83606408  0.66700858  0.71615859  1
  Ti  Ti28  1  0.82709638  0.15598630  0.97972479  1
  Ti  Ti29  1  0.83304804  0.16155082  0.46247300  1
  Ti  Ti30  1  0.68129951  0.84473026  0.21406890  1
  Ti  Ti31  1  0.82949471  0.67544950  0.97835578  1
