# generated using pymatgen
data_TiAl3N4
_symmetry_space_group_name_H-M   'P 1'
_cell_length_a   6.72844727
_cell_length_b   6.72784024
_cell_length_c   8.45341366
_cell_angle_alpha   90.47990030
_cell_angle_beta   89.52763782
_cell_angle_gamma   119.92648904
_symmetry_Int_Tables_number   1
_chemical_formula_structural   TiAl3N4
_chemical_formula_sum   'Ti4 Al12 N16'
_cell_volume   331.63051729
_cell_formula_units_Z   4
loop_
 _symmetry_equiv_pos_site_id
 _symmetry_equiv_pos_as_xyz
  1  'x, y, z'
loop_
 _atom_site_type_symbol
 _atom_site_label
 _atom_site_symmetry_multiplicity
 _atom_site_fract_x
 _atom_site_fract_y
 _atom_site_fract_z
 _atom_site_occupancy
  Al  Al0  1  0.16604755  0.33379110  0.21156000  1
  Al  Al1  1  0.33345830  0.16668912  0.96880791  1
  Al  Al2  1  0.16594311  0.33378300  0.72305384  1
  Al  Al3  1  0.16203987  0.83202203  0.21556964  1
  Al  Al4  1  0.33253037  0.66665038  0.96926636  1
  Al  Al5  1  0.16492707  0.83036633  0.72657640  1
  Al  Al6  1  0.66806600  0.33823251  0.21549896  1
  Al  Al7  1  0.83322900  0.16748583  0.96926479  1
  Al  Al8  1  0.66967785  0.33520944  0.72648661  1
  Al  Al9  1  0.83131596  0.66895810  0.97085648  1
  Al  Al10  1  0.66832089  0.83156463  0.72496456  1
  Al  Al11  1  0.83666911  0.66345634  0.47582061  1
  N  N12  1  0.16928866  0.33042500  0.46823860  1
  N  N13  1  0.33275203  0.16738457  0.21321534  1
  N  N14  1  0.16788671  0.33196121  0.96623867  1
  N  N15  1  0.33473235  0.16530403  0.72313177  1
  N  N16  1  0.15446484  0.82699665  0.47215542  1
  N  N17  1  0.31461169  0.65786723  0.20958524  1
  N  N18  1  0.16506122  0.83524102  0.97056875  1
  N  N19  1  0.33163078  0.66632865  0.72559639  1
  N  N20  1  0.67298791  0.34562179  0.47215536  1
  N  N21  1  0.84199927  0.18546024  0.20955369  1
  N  N22  1  0.66488597  0.33520538  0.97051464  1
  N  N23  1  0.83343880  0.16824251  0.72556966  1
  N  N24  1  0.67935586  0.82037238  0.48953756  1
  N  N25  1  0.83453265  0.66577168  0.22174198  1
  N  N26  1  0.66510811  0.83488676  0.96666730  1
  N  N27  1  0.83620235  0.66396119  0.72790390  1
  Ti  Ti28  1  0.33896398  0.16104839  0.46761343  1
  Ti  Ti29  1  0.34526090  0.67491421  0.46282545  1
  Ti  Ti30  1  0.82480329  0.15457038  0.46278787  1
  Ti  Ti31  1  0.65980757  0.84022792  0.23267278  1
