# generated using pymatgen
data_TiAl7N8
_symmetry_space_group_name_H-M   'P 1'
_cell_length_a   6.68902085
_cell_length_b   6.69146488
_cell_length_c   8.40958160
_cell_angle_alpha   90.00310058
_cell_angle_beta   89.99869140
_cell_angle_gamma   119.99066679
_symmetry_Int_Tables_number   1
_chemical_formula_structural   TiAl7N8
_chemical_formula_sum   'Ti2 Al14 N16'
_cell_volume   326.00901477
_cell_formula_units_Z   2
loop_
 _symmetry_equiv_pos_site_id
 _symmetry_equiv_pos_as_xyz
  1  'x, y, z'
loop_
 _atom_site_type_symbol
 _atom_site_label
 _atom_site_symmetry_multiplicity
 _atom_site_fract_x
 _atom_site_fract_y
 _atom_site_fract_z
 _atom_site_occupancy
  Al  Al0  1  0.16725883  0.33499980  0.22052423  1
  Al  Al1  1  0.33263172  0.16593568  0.97040553  1
  Al  Al2  1  0.16743742  0.33507590  0.72039632  1
  Al  Al3  1  0.16598700  0.83134186  0.22013154  1
  Al  Al4  1  0.33423520  0.66732991  0.97039173  1
  Al  Al5  1  0.16606857  0.83142937  0.72076419  1
  Al  Al6  1  0.33381933  0.66718890  0.47044648  1
  Al  Al7  1  0.66700160  0.33505564  0.22027689  1
  Al  Al8  1  0.66726440  0.33511024  0.72061999  1
  Al  Al9  1  0.83298788  0.16645301  0.47044709  1
  Al  Al10  1  0.66619644  0.83189146  0.22088783  1
  Al  Al11  1  0.83354812  0.66734860  0.97041152  1
  Al  Al12  1  0.66621582  0.83193889  0.71996805  1
  Al  Al13  1  0.83392685  0.66711804  0.47038888  1
  N  N14  1  0.16285052  0.33955589  0.47051698  1
  N  N15  1  0.33227096  0.16528144  0.21395861  1
  N  N16  1  0.17651240  0.33959949  0.97054717  1
  N  N17  1  0.33251121  0.16539061  0.72709144  1
  N  N18  1  0.16085811  0.82110045  0.47057959  1
  N  N19  1  0.33404960  0.66729204  0.22061136  1
  N  N20  1  0.16565052  0.83081530  0.97055207  1
  N  N21  1  0.33404997  0.66731094  0.72056660  1
  N  N22  1  0.67629039  0.33954326  0.47051945  1
  N  N23  1  0.83249838  0.16581544  0.22716411  1
  N  N24  1  0.66244282  0.33965503  0.97054181  1
  N  N25  1  0.83266755  0.16583522  0.71387939  1
  N  N26  1  0.66594119  0.83125032  0.47057923  1
  N  N27  1  0.83381426  0.66736717  0.22057900  1
  N  N28  1  0.66110469  0.82175364  0.97056890  1
  N  N29  1  0.83389134  0.66743289  0.72057912  1
  Ti  Ti30  1  0.33403822  0.16818416  0.47056378  1
  Ti  Ti31  1  0.83397873  0.16859943  0.97054105  1
