# generated using pymatgen
data_TiAl7N8
_symmetry_space_group_name_H-M   'P 1'
_cell_length_a   6.69879484
_cell_length_b   6.66257578
_cell_length_c   8.42109735
_cell_angle_alpha   90.00377212
_cell_angle_beta   90.00237229
_cell_angle_gamma   119.81796696
_symmetry_Int_Tables_number   1
_chemical_formula_structural   TiAl7N8
_chemical_formula_sum   'Ti2 Al14 N16'
_cell_volume   326.08577772
_cell_formula_units_Z   2
loop_
 _symmetry_equiv_pos_site_id
 _symmetry_equiv_pos_as_xyz
  1  'x, y, z'
loop_
 _atom_site_type_symbol
 _atom_site_label
 _atom_site_symmetry_multiplicity
 _atom_site_fract_x
 _atom_site_fract_y
 _atom_site_fract_z
 _atom_site_occupancy
  Ti  Ti0  1  0.17096589  0.33462077  0.22049233  1
  Ti  Ti1  1  0.17126554  0.83626705  0.22051760  1
  Al  Al2  1  0.33569232  0.16777351  0.96478537  1
  Al  Al3  1  0.16438096  0.33191960  0.72044888  1
  Al  Al4  1  0.33562878  0.16768094  0.47605978  1
  Al  Al5  1  0.33486566  0.66728025  0.96539240  1
  Al  Al6  1  0.16465880  0.83220093  0.72044166  1
  Al  Al7  1  0.33475647  0.66704620  0.47553769  1
  Al  Al8  1  0.66947919  0.33503401  0.22029744  1
  Al  Al9  1  0.83105444  0.16547099  0.96976426  1
  Al  Al10  1  0.66850926  0.33446633  0.72036852  1
  Al  Al11  1  0.83096715  0.16536928  0.47092748  1
  Al  Al12  1  0.66832153  0.83431720  0.22038990  1
  Al  Al13  1  0.83133853  0.66612135  0.96981629  1
  Al  Al14  1  0.66755726  0.83383500  0.72036064  1
  Al  Al15  1  0.83124494  0.66596124  0.47088697  1
  N  N16  1  0.16537406  0.33222818  0.47688319  1
  N  N17  1  0.34672657  0.17332419  0.22063967  1
  N  N18  1  0.16554240  0.33245340  0.96424715  1
  N  N19  1  0.33516362  0.16744392  0.72054670  1
  N  N20  1  0.16566803  0.83282440  0.47687536  1
  N  N21  1  0.34481882  0.67216465  0.22065332  1
  N  N22  1  0.16580864  0.83299815  0.96425087  1
  N  N23  1  0.33445130  0.66694062  0.72051468  1
  N  N24  1  0.66624964  0.33332432  0.47320554  1
  N  N25  1  0.81807087  0.15914295  0.22062531  1
  N  N26  1  0.66629354  0.33341049  0.96802086  1
  N  N27  1  0.83285633  0.16629472  0.72062537  1
  N  N28  1  0.66536680  0.83272404  0.47291321  1
  N  N29  1  0.81836978  0.65953766  0.22059012  1
  N  N30  1  0.66540015  0.83285063  0.96829343  1
  N  N31  1  0.83315276  0.66697301  0.72062793  1
