# generated using pymatgen
data_Hf4C3N
_symmetry_space_group_name_H-M   'P 1'
_cell_length_a   8.00435122
_cell_length_b   8.00266047
_cell_length_c   8.00435122
_cell_angle_alpha   109.43942844
_cell_angle_beta   109.50108604
_cell_angle_gamma   109.43942850
_symmetry_Int_Tables_number   1
_chemical_formula_structural   Hf4C3N
_chemical_formula_sum   'Hf16 C12 N4'
_cell_volume   394.86191035
_cell_formula_units_Z   4
loop_
 _symmetry_equiv_pos_site_id
 _symmetry_equiv_pos_as_xyz
  1  'x, y, z'
loop_
 _atom_site_type_symbol
 _atom_site_label
 _atom_site_symmetry_multiplicity
 _atom_site_fract_x
 _atom_site_fract_y
 _atom_site_fract_z
 _atom_site_occupancy
  C  C0  1  0.74869330  0.49856322  0.24727930  1
  C  C1  1  0.50130060  0.75123530  0.24979387  1
  C  C2  1  0.50130670  0.50143678  0.50272070  1
  C  C3  1  0.74869940  0.24876470  0.50020613  1
  C  C4  1  0.99727930  0.49856322  0.99869330  1
  C  C5  1  0.25020613  0.24876470  0.99869940  1
  C  C6  1  0.25003700  0.00000000  0.24996300  1
  C  C7  1  0.25290166  0.75285393  0.50290166  1
  C  C8  1  0.25272070  0.50143678  0.75130670  1
  C  C9  1  0.99709834  0.24714607  0.24709834  1
  C  C10  1  0.99996300  0.00000000  0.50003700  1
  C  C11  1  0.99979387  0.75123530  0.75130060  1
  Hf  Hf12  1  0.75310535  0.25322715  0.00310535  1
  Hf  Hf13  1  0.75122673  0.00127792  0.25246579  1
  Hf  Hf14  1  0.49875150  0.50000000  0.00124850  1
  Hf  Hf15  1  0.50008743  0.25095682  0.25098317  1
  Hf  Hf16  1  0.49877327  0.99872208  0.49753421  1
  Hf  Hf17  1  0.74991257  0.74904318  0.49901683  1
  Hf  Hf18  1  0.75124850  0.50000000  0.74875150  1
  Hf  Hf19  1  0.00246579  0.00127792  0.00122673  1
  Hf  Hf20  1  0.24901683  0.74904318  0.99991257  1
  Hf  Hf21  1  0.24998972  0.50000000  0.25001028  1
  Hf  Hf22  1  0.24903306  0.24979955  0.49903306  1
  Hf  Hf23  1  0.24753421  0.99872208  0.74877327  1
  Hf  Hf24  1  0.49689465  0.74677285  0.74689465  1
  Hf  Hf25  1  0.00096694  0.75020045  0.25096694  1
  Hf  Hf26  1  0.00001028  0.50000000  0.49998972  1
  Hf  Hf27  1  0.00098317  0.25095682  0.75008743  1
  N  N28  1  0.74846470  0.75011021  0.99846470  1
  N  N29  1  0.50171216  0.00000000  0.99828784  1
  N  N30  1  0.74828784  0.00000000  0.75171216  1
  N  N31  1  0.50153530  0.24988979  0.75153530  1
