# generated using pymatgen
data_Hf4C3N
_symmetry_space_group_name_H-M   'P 1'
_cell_length_a   8.00153940
_cell_length_b   8.00153940
_cell_length_c   3.26750687
_cell_angle_alpha   90.00000000
_cell_angle_beta   90.00000000
_cell_angle_gamma   109.36126451
_symmetry_Int_Tables_number   1
_chemical_formula_structural   Hf4C3N
_chemical_formula_sum   'Hf8 C6 N2'
_cell_volume   197.36998810
_cell_formula_units_Z   2
loop_
 _symmetry_equiv_pos_site_id
 _symmetry_equiv_pos_as_xyz
  1  'x, y, z'
loop_
 _atom_site_type_symbol
 _atom_site_label
 _atom_site_symmetry_multiplicity
 _atom_site_fract_x
 _atom_site_fract_y
 _atom_site_fract_z
 _atom_site_occupancy
  C  C0  1  0.87665449  0.12334551  0.50000000  1
  C  C1  1  0.75000000  0.75000000  0.00000000  1
  C  C2  1  0.00332281  0.50332281  0.00000000  1
  C  C3  1  0.25000000  0.25000000  0.00000000  1
  C  C4  1  0.62334551  0.37665449  0.50000000  1
  C  C5  1  0.49667719  0.99667719  0.00000000  1
  Hf  Hf6  1  0.12353550  0.37360521  0.50000000  1
  Hf  Hf7  1  0.99840478  0.00159522  0.00000000  1
  Hf  Hf8  1  0.37646450  0.12639479  0.50000000  1
  Hf  Hf9  1  0.25000000  0.75000000  0.00000000  1
  Hf  Hf10  1  0.62639479  0.87646450  0.50000000  1
  Hf  Hf11  1  0.50159522  0.49840478  0.00000000  1
  Hf  Hf12  1  0.87360521  0.62353550  0.50000000  1
  Hf  Hf13  1  0.75000000  0.25000000  0.00000000  1
  N  N14  1  0.12753933  0.87246067  0.50000000  1
  N  N15  1  0.37246067  0.62753933  0.50000000  1
