# generated using pymatgen
data_Hf2CN
_symmetry_space_group_name_H-M   'P 1'
_cell_length_a   6.49926035
_cell_length_b   6.49926035
_cell_length_c   7.95227528
_cell_angle_alpha   90.00000000
_cell_angle_beta   90.00000000
_cell_angle_gamma   120.00000003
_symmetry_Int_Tables_number   1
_chemical_formula_structural   Hf2CN
_chemical_formula_sum   'Hf12 C6 N6'
_cell_volume   290.90414278
_cell_formula_units_Z   6
loop_
 _symmetry_equiv_pos_site_id
 _symmetry_equiv_pos_as_xyz
  1  'x, y, z'
loop_
 _atom_site_type_symbol
 _atom_site_label
 _atom_site_symmetry_multiplicity
 _atom_site_fract_x
 _atom_site_fract_y
 _atom_site_fract_z
 _atom_site_occupancy
  C  C0  1  0.66711800  0.83423598  0.82923373  1
  C  C1  1  0.83423598  0.66711800  0.17076627  1
  C  C2  1  0.66711800  0.33288200  0.82923373  1
  C  C3  1  0.33288200  0.66711800  0.17076627  1
  C  C4  1  0.16576402  0.33288200  0.82923373  1
  C  C5  1  0.33288200  0.16576402  0.17076627  1
  Hf  Hf6  1  0.66556697  0.83113393  0.32959769  1
  Hf  Hf7  1  0.50000000  0.50000000  0.00000000  1
  Hf  Hf8  1  0.83113393  0.66556697  0.67040231  1
  Hf  Hf9  1  0.66556697  0.33443303  0.32959769  1
  Hf  Hf10  1  0.50000000  0.00000000  0.00000000  1
  Hf  Hf11  1  0.83333333  0.16666667  0.67063375  1
  Hf  Hf12  1  0.16666667  0.83333333  0.32936625  1
  Hf  Hf13  1  0.00000000  0.50000000  0.00000000  1
  Hf  Hf14  1  0.33443303  0.66556697  0.67040231  1
  Hf  Hf15  1  0.16886607  0.33443303  0.32959769  1
  Hf  Hf16  1  0.00000000  0.00000000  0.00000000  1
  Hf  Hf17  1  0.33443303  0.16886607  0.67040231  1
  N  N18  1  0.50000000  0.50000000  0.50000000  1
  N  N19  1  0.50000000  0.00000000  0.50000000  1
  N  N20  1  0.83333333  0.16666667  0.17075754  1
  N  N21  1  0.16666667  0.83333333  0.82924246  1
  N  N22  1  0.00000000  0.50000000  0.50000000  1
  N  N23  1  0.00000000  0.00000000  0.50000000  1
