# generated using pymatgen
data_Hf2CN
_symmetry_space_group_name_H-M   'P 1'
_cell_length_a   7.95538846
_cell_length_b   7.95462649
_cell_length_c   3.25131694
_cell_angle_alpha   90.00000000
_cell_angle_beta   90.00000000
_cell_angle_gamma   109.52148176
_symmetry_Int_Tables_number   1
_chemical_formula_structural   Hf2CN
_chemical_formula_sum   'Hf8 C4 N4'
_cell_volume   193.92301133
_cell_formula_units_Z   4
loop_
 _symmetry_equiv_pos_site_id
 _symmetry_equiv_pos_as_xyz
  1  'x, y, z'
loop_
 _atom_site_type_symbol
 _atom_site_label
 _atom_site_symmetry_multiplicity
 _atom_site_fract_x
 _atom_site_fract_y
 _atom_site_fract_z
 _atom_site_occupancy
  C  C0  1  0.99524274  0.50111710  0.00000000  1
  C  C1  1  0.37753990  0.62565035  0.50000000  1
  C  C2  1  0.24934643  0.24725165  0.00000000  1
  C  C3  1  0.50271291  0.00121037  0.00000000  1
  Hf  Hf4  1  0.12709169  0.37770338  0.50000000  1
  Hf  Hf5  1  0.00301064  0.00565979  0.00000000  1
  Hf  Hf6  1  0.37563161  0.12520156  0.50000000  1
  Hf  Hf7  1  0.25096653  0.74830510  0.00000000  1
  Hf  Hf8  1  0.61981464  0.87311218  0.50000000  1
  Hf  Hf9  1  0.49526793  0.49885526  0.00000000  1
  Hf  Hf10  1  0.87679616  0.62240606  0.50000000  1
  Hf  Hf11  1  0.75157113  0.24873508  0.00000000  1
  N  N12  1  0.87408038  0.12099872  0.50000000  1
  N  N13  1  0.75387083  0.75146708  0.00000000  1
  N  N14  1  0.11902472  0.87633974  0.50000000  1
  N  N15  1  0.62803175  0.37598657  0.50000000  1
