# generated using pymatgen
data_Hf4CN3
_symmetry_space_group_name_H-M   'P 1'
_cell_length_a   7.90212185
_cell_length_b   7.90212185
_cell_length_c   3.22885525
_cell_angle_alpha   90.00000000
_cell_angle_beta   90.00000000
_cell_angle_gamma   109.34748212
_symmetry_Int_Tables_number   1
_chemical_formula_structural   Hf4CN3
_chemical_formula_sum   'Hf8 C2 N6'
_cell_volume   190.23491367
_cell_formula_units_Z   2
loop_
 _symmetry_equiv_pos_site_id
 _symmetry_equiv_pos_as_xyz
  1  'x, y, z'
loop_
 _atom_site_type_symbol
 _atom_site_label
 _atom_site_symmetry_multiplicity
 _atom_site_fract_x
 _atom_site_fract_y
 _atom_site_fract_z
 _atom_site_occupancy
  N  N0  1  0.87219479  0.12780521  0.50000000  1
  N  N1  1  0.75000000  0.75000000  0.00000000  1
  N  N2  1  0.99610446  0.49610446  0.00000000  1
  N  N3  1  0.25000000  0.25000000  0.00000000  1
  N  N4  1  0.62780521  0.37219479  0.50000000  1
  N  N5  1  0.50389554  0.00389554  0.00000000  1
  Hf  Hf6  1  0.12873617  0.37822282  0.50000000  1
  Hf  Hf7  1  0.00066747  0.99933253  0.00000000  1
  Hf  Hf8  1  0.37126383  0.12177718  0.50000000  1
  Hf  Hf9  1  0.25000000  0.75000000  0.00000000  1
  Hf  Hf10  1  0.62177718  0.87126383  0.50000000  1
  Hf  Hf11  1  0.49933253  0.50066747  0.00000000  1
  Hf  Hf12  1  0.87822282  0.62873617  0.50000000  1
  Hf  Hf13  1  0.75000000  0.25000000  0.00000000  1
  C  C14  1  0.12316973  0.87683027  0.50000000  1
  C  C15  1  0.37683027  0.62316973  0.50000000  1
