# generated using pymatgen
data_Ta4C3N
_symmetry_space_group_name_H-M   'P 1'
_cell_length_a   7.74778267
_cell_length_b   7.72739229
_cell_length_c   7.74778266
_cell_angle_alpha   109.34993329
_cell_angle_beta   109.48702459
_cell_angle_gamma   109.34993333
_symmetry_Int_Tables_number   1
_chemical_formula_structural   Ta4C3N
_chemical_formula_sum   'Ta16 C12 N4'
_cell_volume   358.07567606
_cell_formula_units_Z   4
loop_
 _symmetry_equiv_pos_site_id
 _symmetry_equiv_pos_as_xyz
  1  'x, y, z'
loop_
 _atom_site_type_symbol
 _atom_site_label
 _atom_site_symmetry_multiplicity
 _atom_site_fract_x
 _atom_site_fract_y
 _atom_site_fract_z
 _atom_site_occupancy
  C  C0  1  0.74983110  0.49996445  0.24831181  1
  C  C1  1  0.50026010  0.75107193  0.24915458  1
  C  C2  1  0.50016890  0.50003555  0.50168819  1
  C  C3  1  0.74973990  0.24892807  0.50084542  1
  C  C4  1  0.99831181  0.49996445  0.99983110  1
  C  C5  1  0.25084542  0.24892807  0.99973990  1
  C  C6  1  0.25093264  0.00000000  0.24906736  1
  C  C7  1  0.25193559  0.75176879  0.50193559  1
  C  C8  1  0.25168819  0.50003555  0.75016890  1
  C  C9  1  0.99806441  0.24823121  0.24806441  1
  C  C10  1  0.99906736  0.00000000  0.50093264  1
  C  C11  1  0.99915458  0.75107193  0.75026010  1
  Ta  Ta12  1  0.76561265  0.26706520  0.01561265  1
  Ta  Ta13  1  0.75778390  0.00693676  0.26630894  1
  Ta  Ta14  1  0.49269941  0.50000000  0.00730059  1
  Ta  Ta15  1  0.49986918  0.25788100  0.25881221  1
  Ta  Ta16  1  0.49221610  0.99306324  0.48369106  1
  Ta  Ta17  1  0.75013082  0.74211900  0.49118779  1
  Ta  Ta18  1  0.75730059  0.50000000  0.74269941  1
  Ta  Ta19  1  0.01630894  0.00693676  0.00778390  1
  Ta  Ta20  1  0.24118779  0.74211900  0.00013082  1
  Ta  Ta21  1  0.25054108  0.50000000  0.24945892  1
  Ta  Ta22  1  0.24176134  0.24789264  0.49176134  1
  Ta  Ta23  1  0.23369106  0.99306324  0.74221610  1
  Ta  Ta24  1  0.48438735  0.73293480  0.73438735  1
  Ta  Ta25  1  0.00823866  0.75210736  0.25823866  1
  Ta  Ta26  1  0.99945892  0.50000000  0.50054108  1
  Ta  Ta27  1  0.00881221  0.25788100  0.74986918  1
  N  N28  1  0.74654911  0.75038427  0.99654911  1
  N  N29  1  0.50363137  -0.00000000  0.99636863  1
  N  N30  1  0.74636863  0.00000000  0.75363137  1
  N  N31  1  0.50345089  0.24961573  0.75345089  1
