# generated using pymatgen
data_Ta4C3N
_symmetry_space_group_name_H-M   'P 1'
_cell_length_a   6.32231887
_cell_length_b   7.06806976
_cell_length_c   8.36047114
_cell_angle_alpha   84.94151016
_cell_angle_beta   79.00998196
_cell_angle_gamma   77.05259434
_symmetry_Int_Tables_number   1
_chemical_formula_structural   Ta4C3N
_chemical_formula_sum   'Ta16 C12 N4'
_cell_volume   357.02136038
_cell_formula_units_Z   4
loop_
 _symmetry_equiv_pos_site_id
 _symmetry_equiv_pos_as_xyz
  1  'x, y, z'
loop_
 _atom_site_type_symbol
 _atom_site_label
 _atom_site_symmetry_multiplicity
 _atom_site_fract_x
 _atom_site_fract_y
 _atom_site_fract_z
 _atom_site_occupancy
  C  C0  1  0.09324424  0.68691182  0.93595496  1
  C  C1  1  0.59419282  0.68959275  0.93828461  1
  C  C2  1  0.96740618  0.43737017  0.68967578  1
  C  C3  1  0.46939386  0.43686088  0.68809568  1
  C  C4  1  0.27845747  0.06734140  0.81208112  1
  C  C5  1  0.15663892  0.81276219  0.56189285  1
  C  C6  1  0.65751032  0.81005563  0.56124544  1
  C  C7  1  0.03008018  0.56641697  0.31207687  1
  C  C8  1  0.53158939  0.56278780  0.31076580  1
  C  C9  1  0.40839713  0.30738248  0.06287021  1
  C  C10  1  0.34335549  0.18574002  0.43741874  1
  C  C11  1  0.84449471  0.18596143  0.43725506  1
  Ta  Ta12  1  0.67694216  0.38545417  0.87662977  1
  Ta  Ta13  1  0.19245842  0.38099967  0.87567030  1
  Ta  Ta14  1  0.55501153  0.12311523  0.62168502  1
  Ta  Ta15  1  0.06961365  0.12819466  0.62346545  1
  Ta  Ta16  1  0.87448610  0.74458836  0.74720341  1
  Ta  Ta17  1  0.37593548  0.75365720  0.75054725  1
  Ta  Ta18  1  0.75055650  0.49533020  0.49870150  1
  Ta  Ta19  1  0.25138643  0.49833722  0.49882582  1
  Ta  Ta20  1  0.61567539  0.25402431  0.25437060  1
  Ta  Ta21  1  0.12936561  0.25773915  0.25367089  1
  Ta  Ta22  1  0.49057536  0.99954626  0.99512949  1
  Ta  Ta23  1  0.01578018  0.98710608  0.99536569  1
  Ta  Ta24  1  0.93468085  0.87535746  0.38148894  1
  Ta  Ta25  1  0.43955559  0.87129476  0.38014967  1
  Ta  Ta26  1  0.81221444  0.62907548  0.12454396  1
  Ta  Ta27  1  0.31533691  0.61675996  0.12236392  1
  N  N28  1  0.78193614  0.06439108  0.81767984  1
  N  N29  1  0.90501398  0.30790464  0.06428632  1
  N  N30  1  0.21793699  0.93766390  0.18769311  1
  N  N31  1  0.72077762  0.94027668  0.18291188  1
