# generated using pymatgen
data_Ta4C3N
_symmetry_space_group_name_H-M   'P 1'
_cell_length_a   7.73634317
_cell_length_b   7.73634317
_cell_length_c   3.15739766
_cell_angle_alpha   90.00000000
_cell_angle_beta   90.00000000
_cell_angle_gamma   109.43971435
_symmetry_Int_Tables_number   1
_chemical_formula_structural   Ta4C3N
_chemical_formula_sum   'Ta8 C6 N2'
_cell_volume   178.20046507
_cell_formula_units_Z   2
loop_
 _symmetry_equiv_pos_site_id
 _symmetry_equiv_pos_as_xyz
  1  'x, y, z'
loop_
 _atom_site_type_symbol
 _atom_site_label
 _atom_site_symmetry_multiplicity
 _atom_site_fract_x
 _atom_site_fract_y
 _atom_site_fract_z
 _atom_site_occupancy
  C  C0  1  0.87589591  0.12410409  0.50000000  1
  C  C1  1  0.75000000  0.75000000  0.00000000  1
  C  C2  1  0.00195954  0.50195954  0.00000000  1
  C  C3  1  0.25000000  0.25000000  0.00000000  1
  C  C4  1  0.62410409  0.37589591  0.50000000  1
  C  C5  1  0.49804046  0.99804046  0.00000000  1
  Ta  Ta6  1  0.12095940  0.36877660  0.50000000  1
  Ta  Ta7  1  0.99828748  0.00171252  0.00000000  1
  Ta  Ta8  1  0.37904060  0.13122340  0.50000000  1
  Ta  Ta9  1  0.25000000  0.75000000  0.00000000  1
  Ta  Ta10  1  0.63122340  0.87904060  0.50000000  1
  Ta  Ta11  1  0.50171252  0.49828748  0.00000000  1
  Ta  Ta12  1  0.86877660  0.62095940  0.50000000  1
  Ta  Ta13  1  0.75000000  0.25000000  0.00000000  1
  N  N14  1  0.12670326  0.87329674  0.50000000  1
  N  N15  1  0.37329674  0.62670326  0.50000000  1
