# generated using pymatgen
data_Ta2CN
_symmetry_space_group_name_H-M   'P 1'
_cell_length_a   7.74519567
_cell_length_b   7.72366258
_cell_length_c   3.13993870
_cell_angle_alpha   90.00000000
_cell_angle_beta   90.00000000
_cell_angle_gamma   109.48267744
_symmetry_Int_Tables_number   1
_chemical_formula_structural   Ta2CN
_chemical_formula_sum   'Ta8 C4 N4'
_cell_volume   177.08015037
_cell_formula_units_Z   4
loop_
 _symmetry_equiv_pos_site_id
 _symmetry_equiv_pos_as_xyz
  1  'x, y, z'
loop_
 _atom_site_type_symbol
 _atom_site_label
 _atom_site_symmetry_multiplicity
 _atom_site_fract_x
 _atom_site_fract_y
 _atom_site_fract_z
 _atom_site_occupancy
  C  C0  1  0.99983684  0.50177904  0.00000000  1
  C  C1  1  0.37560922  0.62442132  0.50000000  1
  C  C2  1  0.25015040  0.25075890  0.00000000  1
  C  C3  1  0.50069648  0.00065992  0.00000000  1
  Ta  Ta4  1  0.12468062  0.38166225  0.50000000  1
  Ta  Ta5  1  0.00893663  0.01348743  0.00000000  1
  Ta  Ta6  1  0.37873710  0.12332995  0.50000000  1
  Ta  Ta7  1  0.25691891  0.74705689  0.00000000  1
  Ta  Ta8  1  0.61422015  0.87619478  0.50000000  1
  Ta  Ta9  1  0.48706197  0.49513378  0.00000000  1
  Ta  Ta10  1  0.87749738  0.61529655  0.50000000  1
  Ta  Ta11  1  0.75289986  0.24703444  0.00000000  1
  N  N12  1  0.87360643  0.12070388  0.50000000  1
  N  N13  1  0.75343735  0.75256257  0.00000000  1
  N  N14  1  0.11872364  0.87505583  0.50000000  1
  N  N15  1  0.62698703  0.37486248  0.50000000  1
