# generated using pymatgen
data_Ta2CN
_symmetry_space_group_name_H-M   'P 1'
_cell_length_a   6.29914731
_cell_length_b   6.29914731
_cell_length_c   7.72360572
_cell_angle_alpha   90.00000000
_cell_angle_beta   90.00000000
_cell_angle_gamma   119.99999997
_symmetry_Int_Tables_number   1
_chemical_formula_structural   Ta2CN
_chemical_formula_sum   'Ta12 C6 N6'
_cell_volume   265.40815104
_cell_formula_units_Z   6
loop_
 _symmetry_equiv_pos_site_id
 _symmetry_equiv_pos_as_xyz
  1  'x, y, z'
loop_
 _atom_site_type_symbol
 _atom_site_label
 _atom_site_symmetry_multiplicity
 _atom_site_fract_x
 _atom_site_fract_y
 _atom_site_fract_z
 _atom_site_occupancy
  C  C0  1  0.66744188  0.83488375  0.83390039  1
  C  C1  1  0.83488375  0.66744188  0.16609961  1
  C  C2  1  0.66744188  0.33255812  0.83390039  1
  C  C3  1  0.33255812  0.66744188  0.16609961  1
  C  C4  1  0.16511625  0.33255812  0.83390039  1
  C  C5  1  0.33255812  0.16511625  0.16609961  1
  Ta  Ta6  1  0.65839062  0.81678122  0.32912851  1
  Ta  Ta7  1  0.50000000  0.50000000  0.00000000  1
  Ta  Ta8  1  0.81678122  0.65839062  0.67087149  1
  Ta  Ta9  1  0.65839062  0.34160938  0.32912851  1
  Ta  Ta10  1  0.50000000  0.00000000  0.00000000  1
  Ta  Ta11  1  0.83333333  0.16666667  0.67356920  1
  Ta  Ta12  1  0.16666667  0.83333333  0.32643080  1
  Ta  Ta13  1  0.00000000  0.50000000  0.00000000  1
  Ta  Ta14  1  0.34160938  0.65839062  0.67087149  1
  Ta  Ta15  1  0.18321878  0.34160938  0.32912851  1
  Ta  Ta16  1  0.00000000  0.00000000  0.00000000  1
  Ta  Ta17  1  0.34160938  0.18321878  0.67087149  1
  N  N18  1  0.50000000  0.50000000  0.50000000  1
  N  N19  1  0.50000000  0.00000000  0.50000000  1
  N  N20  1  0.83333333  0.16666667  0.17662199  1
  N  N21  1  0.16666667  0.83333333  0.82337801  1
  N  N22  1  0.00000000  0.50000000  0.50000000  1
  N  N23  1  0.00000000  0.00000000  0.50000000  1
