# generated using pymatgen
data_Ta4CN3
_symmetry_space_group_name_H-M   'P 1'
_cell_length_a   6.29195570
_cell_length_b   6.96955322
_cell_length_c   8.32357842
_cell_angle_alpha   85.61100611
_cell_angle_beta   80.20407450
_cell_angle_gamma   77.08273198
_symmetry_Int_Tables_number   1
_chemical_formula_structural   Ta4CN3
_chemical_formula_sum   'Ta16 C4 N12'
_cell_volume   350.30086518
_cell_formula_units_Z   4
loop_
 _symmetry_equiv_pos_site_id
 _symmetry_equiv_pos_as_xyz
  1  'x, y, z'
loop_
 _atom_site_type_symbol
 _atom_site_label
 _atom_site_symmetry_multiplicity
 _atom_site_fract_x
 _atom_site_fract_y
 _atom_site_fract_z
 _atom_site_occupancy
  N  N0  1  0.10985550  0.68595541  0.92606913  1
  N  N1  1  0.57897797  0.68104456  0.94893834  1
  N  N2  1  0.98516704  0.44177314  0.67290507  1
  N  N3  1  0.44903540  0.42921720  0.70202934  1
  N  N4  1  0.28785837  0.05731047  0.80569761  1
  N  N5  1  0.14475037  0.81150201  0.57285136  1
  N  N6  1  0.66677065  0.82375460  0.54999929  1
  N  N7  1  0.01597775  0.55628644  0.33025003  1
  N  N8  1  0.54935898  0.56583432  0.30317298  1
  N  N9  1  0.41101843  0.31902957  0.05266248  1
  N  N10  1  0.33614379  0.18879001  0.44421594  1
  N  N11  1  0.84996858  0.19431555  0.43270766  1
  Ta  Ta12  1  0.70268983  0.36820075  0.86646417  1
  Ta  Ta13  1  0.16449934  0.36998662  0.88160486  1
  Ta  Ta14  1  0.57657961  0.12882821  0.62593032  1
  Ta  Ta15  1  0.04490513  0.12400325  0.63580328  1
  Ta  Ta16  1  0.85590488  0.74996230  0.75559961  1
  Ta  Ta17  1  0.39691826  0.74305456  0.73611402  1
  Ta  Ta18  1  0.72873331  0.50517757  0.51447292  1
  Ta  Ta19  1  0.27153491  0.50640449  0.49271645  1
  Ta  Ta20  1  0.62942722  0.24728655  0.24567958  1
  Ta  Ta21  1  0.12805944  0.24812828  0.24140003  1
  Ta  Ta22  1  0.50438844  0.99883754  0.00464100  1
  Ta  Ta23  1  0.99291504  0.00250330  0.00564435  1
  Ta  Ta24  1  0.95279238  0.87429099  0.36307385  1
  Ta  Ta25  1  0.43032787  0.87601204  0.37019398  1
  Ta  Ta26  1  0.82668000  0.62774120  0.12107071  1
  Ta  Ta27  1  0.29525239  0.62869759  0.13948129  1
  C  C28  1  0.77753975  0.05551598  0.81887653  1
  C  C29  1  0.89564448  0.31382896  0.06675901  1
  C  C30  1  0.22320985  0.94098801  0.18073946  1
  C  C31  1  0.71711505  0.93573851  0.19223533  1
