# generated using pymatgen
data_Ta4CN3
_symmetry_space_group_name_H-M   'P 1'
_cell_length_a   7.70561393
_cell_length_b   7.70561393
_cell_length_c   3.12303715
_cell_angle_alpha   90.00000000
_cell_angle_beta   90.00000000
_cell_angle_gamma   109.51291147
_symmetry_Int_Tables_number   1
_chemical_formula_structural   Ta4CN3
_chemical_formula_sum   'Ta8 C2 N6'
_cell_volume   174.78474482
_cell_formula_units_Z   2
loop_
 _symmetry_equiv_pos_site_id
 _symmetry_equiv_pos_as_xyz
  1  'x, y, z'
loop_
 _atom_site_type_symbol
 _atom_site_label
 _atom_site_symmetry_multiplicity
 _atom_site_fract_x
 _atom_site_fract_y
 _atom_site_fract_z
 _atom_site_occupancy
  N  N0  1  0.87455493  0.12544507  0.50000000  1
  N  N1  1  0.75000000  0.75000000  0.00000000  1
  N  N2  1  0.99955576  0.49955576  0.00000000  1
  N  N3  1  0.25000000  0.25000000  0.00000000  1
  N  N4  1  0.62544507  0.37455493  0.50000000  1
  N  N5  1  0.50044424  0.00044424  0.00000000  1
  Ta  Ta6  1  0.13133055  0.38052881  0.50000000  1
  Ta  Ta7  1  0.00334466  0.99665534  0.00000000  1
  Ta  Ta8  1  0.36866945  0.11947119  0.50000000  1
  Ta  Ta9  1  0.25000000  0.75000000  0.00000000  1
  Ta  Ta10  1  0.61947119  0.86866945  0.50000000  1
  Ta  Ta11  1  0.49665534  0.50334466  0.00000000  1
  Ta  Ta12  1  0.88052881  0.63133055  0.50000000  1
  Ta  Ta13  1  0.75000000  0.25000000  0.00000000  1
  C  C14  1  0.12535218  0.87464782  0.50000000  1
  C  C15  1  0.37464782  0.62535218  0.50000000  1
