# generated using pymatgen
data_NbAlFeCoNi
_symmetry_space_group_name_H-M   'P 1'
_cell_length_a   5.64558510
_cell_length_b   5.88145915
_cell_length_c   7.74113665
_cell_angle_alpha   91.01659441
_cell_angle_beta   89.85139063
_cell_angle_gamma   90.53164563
_symmetry_Int_Tables_number   1
_chemical_formula_structural   NbAlFeCoNi
_chemical_formula_sum   'Nb4 Al4 Fe4 Co4 Ni4'
_cell_volume   256.98657422
_cell_formula_units_Z   4
loop_
 _symmetry_equiv_pos_site_id
 _symmetry_equiv_pos_as_xyz
  1  'x, y, z'
loop_
 _atom_site_type_symbol
 _atom_site_label
 _atom_site_symmetry_multiplicity
 _atom_site_fract_x
 _atom_site_fract_y
 _atom_site_fract_z
 _atom_site_occupancy
  Al  Al0  1  0.07728008  0.28080397  0.74087459  1
  Al  Al1  1  0.20337749  0.58092732  0.00885924  1
  Al  Al2  1  0.31888222  0.89749756  0.23925391  1
  Al  Al3  1  0.45093836  0.19558057  0.99864596  1
  Co  Co4  1  0.27958551  0.88904625  0.76689489  1
  Co  Co5  1  0.46633262  0.49095228  0.75310853  1
  Co  Co6  1  0.60956664  0.79064339  0.47893737  1
  Co  Co7  1  0.90012155  0.70066936  0.24924267  1
  Nb  Nb8  1  0.96939925  0.01823675  0.01647443  1
  Nb  Nb9  1  0.20901973  0.61811411  0.49710698  1
  Nb  Nb10  1  0.42506353  0.18114813  0.50223978  1
  Nb  Nb11  1  0.84941757  0.70189008  0.74501684  1
  Fe  Fe12  1  0.71341588  0.09790422  0.26610880  1
  Fe  Fe13  1  0.80847169  0.41352408  0.49246970  1
  Fe  Fe14  1  0.59246199  0.79163170  -0.00006983  1
  Fe  Fe15  1  0.81013579  0.42562465  0.00281655  1
  Ni  Ni16  1  0.00041966  0.01146187  0.49241349  1
  Ni  Ni17  1  0.10670894  0.30498413  0.25226893  1
  Ni  Ni18  1  0.69037255  0.11384871  0.74850510  1
  Ni  Ni19  1  0.51902895  0.49551087  0.24883209  1
