# generated using pymatgen
data_MnFeCoNiPt
_symmetry_space_group_name_H-M   'P 1'
_cell_length_a   5.68636808
_cell_length_b   5.67487716
_cell_length_c   7.21973189
_cell_angle_alpha   90.06692914
_cell_angle_beta   89.87584415
_cell_angle_gamma   89.80187489
_symmetry_Int_Tables_number   1
_chemical_formula_structural   MnFeCoNiPt
_chemical_formula_sum   'Mn4 Fe4 Co4 Ni4 Pt4'
_cell_volume   232.97460655
_cell_formula_units_Z   4
loop_
 _symmetry_equiv_pos_site_id
 _symmetry_equiv_pos_as_xyz
  1  'x, y, z'
loop_
 _atom_site_type_symbol
 _atom_site_label
 _atom_site_symmetry_multiplicity
 _atom_site_fract_x
 _atom_site_fract_y
 _atom_site_fract_z
 _atom_site_occupancy
  Pt  Pt0  1  0.08635443  0.29454795  0.74070171  1
  Pt  Pt1  1  0.19391798  0.61355458  0.99562849  1
  Pt  Pt2  1  0.29988752  0.90471106  0.26632304  1
  Pt  Pt3  1  0.41435910  0.19345768  0.99631834  1
  Co  Co4  1  0.30417074  0.89267654  0.73250566  1
  Co  Co5  1  0.51579768  0.50994829  0.74520843  1
  Co  Co6  1  0.60601536  0.78281994  0.50380165  1
  Co  Co7  1  0.88917769  0.69886212  0.25621500  1
  Mn  Mn8  1  0.97189882  0.99956826  0.00421065  1
  Mn  Mn9  1  0.22125276  0.59531282  0.50498161  1
  Mn  Mn10  1  0.40784449  0.22278055  0.50108247  1
  Mn  Mn11  1  0.88926939  0.70533625  0.74857194  1
  Fe  Fe12  1  0.71113709  0.09814584  0.25246189  1
  Fe  Fe13  1  0.78199474  0.39787665  0.49588145  1
  Fe  Fe14  1  0.62687161  0.79616041  0.99784175  1
  Fe  Fe15  1  0.79959243  0.40653196  0.00563163  1
  Ni  Ni16  1  0.98603217  0.99199974  0.50073330  1
  Ni  Ni17  1  0.09061708  0.30694845  0.25946634  1
  Ni  Ni18  1  0.69367186  0.09047840  0.73939090  1
  Ni  Ni19  1  0.51013705  0.49828252  0.25304372  1
