# generated using pymatgen
data_TiAl7N8
_symmetry_space_group_name_H-M   'P 1'
_cell_length_a   6.30527081
_cell_length_b   6.29436939
_cell_length_c   10.11878396
_cell_angle_alpha   89.99999999
_cell_angle_beta   89.85930432
_cell_angle_gamma   119.94282376
_symmetry_Int_Tables_number   1
_chemical_formula_structural   TiAl7N8
_chemical_formula_sum   'Ti2 Al14 N16'
_cell_volume   347.98707283
_cell_formula_units_Z   2
loop_
 _symmetry_equiv_pos_site_id
 _symmetry_equiv_pos_as_xyz
  1  'x, y, z'
loop_
 _atom_site_type_symbol
 _atom_site_label
 _atom_site_symmetry_multiplicity
 _atom_site_fract_x
 _atom_site_fract_y
 _atom_site_fract_z
 _atom_site_occupancy
  Al  Al0  1  0.16714436  0.33357219  0.49910030  1
  Al  Al1  1  0.33274970  0.16637484  0.25173879  1
  Al  Al2  1  0.17125833  0.33562918  0.00056251  1
  Al  Al3  1  0.32964017  0.16482008  0.74622397  1
  Al  Al4  1  0.16714436  0.83357218  0.49910030  1
  Al  Al5  1  0.33274970  0.66637485  0.25173879  1
  Al  Al6  1  0.17125833  0.83562917  0.00056251  1
  Al  Al7  1  0.32964017  0.66482009  0.74622397  1
  Al  Al8  1  0.66632602  0.33316302  0.49980585  1
  Al  Al9  1  0.83368366  0.16684183  0.25384922  1
  Al  Al10  1  0.83624258  0.16812129  0.74596887  1
  Al  Al11  1  0.66632602  0.83316301  0.49980585  1
  Al  Al12  1  0.83368366  0.66684184  0.25384922  1
  Al  Al13  1  0.83624258  0.66812130  0.74596887  1
  N  N14  1  0.16576362  0.33288182  0.19150970  1
  N  N15  1  0.33340755  0.16670377  0.44114729  1
  N  N16  1  0.16719176  0.33359589  0.68729008  1
  N  N17  1  0.32032271  0.16016135  0.93450060  1
  N  N18  1  0.16576362  0.83288181  0.19150970  1
  N  N19  1  0.33340755  0.66670378  0.44114729  1
  N  N20  1  0.16719176  0.83359588  0.68729008  1
  N  N21  1  0.32032271  0.66016136  0.93450060  1
  N  N22  1  0.66832031  0.33416016  0.19979247  1
  N  N23  1  0.83461638  0.16730818  0.44364778  1
  N  N24  1  0.66531743  0.33265872  0.69092847  1
  N  N25  1  0.84477766  0.17238883  0.93502627  1
  N  N26  1  0.66832031  0.83416015  0.19979247  1
  N  N27  1  0.83461638  0.66730819  0.44364778  1
  N  N28  1  0.66531743  0.83265871  0.69092847  1
  N  N29  1  0.84477766  0.67238884  0.93502627  1
  Ti  Ti30  1  0.66323774  0.33161888  0.99890783  1
  Ti  Ti31  1  0.66323774  0.83161887  0.99890783  1
