# generated using pymatgen
data_TiAl7N8
_symmetry_space_group_name_H-M   'P 1'
_cell_length_a   6.31888524
_cell_length_b   6.34499170
_cell_length_c   10.02864952
_cell_angle_alpha   89.99999998
_cell_angle_beta   89.08050316
_cell_angle_gamma   120.13676332
_symmetry_Int_Tables_number   1
_chemical_formula_structural   TiAl7N8
_chemical_formula_sum   'Ti2 Al14 N16'
_cell_volume   347.67196468
_cell_formula_units_Z   2
loop_
 _symmetry_equiv_pos_site_id
 _symmetry_equiv_pos_as_xyz
  1  'x, y, z'
loop_
 _atom_site_type_symbol
 _atom_site_label
 _atom_site_symmetry_multiplicity
 _atom_site_fract_x
 _atom_site_fract_y
 _atom_site_fract_z
 _atom_site_occupancy
  Al  Al0  1  0.15750735  0.32584097  0.49650214  1
  Al  Al1  1  0.33022361  0.16511179  0.24819603  1
  Al  Al2  1  0.17150016  0.33830062  0.99946066  1
  Al  Al3  1  0.33869675  0.16934837  0.75211152  1
  Al  Al4  1  0.15750735  0.83166638  0.49650214  1
  Al  Al5  1  0.32653682  0.66326841  0.24677308  1
  Al  Al6  1  0.17150016  0.83319955  0.99946066  1
  Al  Al7  1  0.65971457  0.32985729  0.50174444  1
  Al  Al8  1  0.82925404  0.16501934  0.24735906  1
  Al  Al9  1  0.66824132  0.33412066  0.00121291  1
  Al  Al10  1  0.84251111  0.17302004  0.75582762  1
  Al  Al11  1  0.82925404  0.66423470  0.24735906  1
  Al  Al12  1  0.66839278  0.83419638  0.99800895  1
  Al  Al13  1  0.84251111  0.66949106  0.75582762  1
  N  N14  1  0.16483627  0.33115035  0.19094071  1
  N  N15  1  0.32826442  0.16413220  0.43936472  1
  N  N16  1  0.16822208  0.32227139  0.68722781  1
  N  N17  1  0.33609260  0.16804629  0.94206631  1
  N  N18  1  0.16483627  0.83368593  0.19094071  1
  N  N19  1  0.30615189  0.65307594  0.43739270  1
  N  N20  1  0.16822208  0.84595070  0.68722781  1
  N  N21  1  0.33985735  0.66992868  0.94163555  1
  N  N22  1  0.66465478  0.33232739  0.19149790  1
  N  N23  1  0.82613192  0.16935860  0.43966775  1
  N  N24  1  0.67415535  0.33707768  0.69350622  1
  N  N25  1  0.83814593  0.17134629  0.94510184  1
  N  N26  1  0.66450404  0.83225201  0.19272876  1
  N  N27  1  0.82613192  0.65677332  0.43966775  1
  N  N28  1  0.70302863  0.85151431  0.70196652  1
  N  N29  1  0.83814593  0.66679964  0.94510184  1
  Ti  Ti30  1  0.33861133  0.66930567  0.72405971  1
  Ti  Ti31  1  0.65665607  0.82832803  0.50355951  1
