# generated using pymatgen
data_TiAl7N8
_symmetry_space_group_name_H-M   'P 1'
_cell_length_a   6.31893357
_cell_length_b   6.31893357
_cell_length_c   10.02857163
_cell_angle_alpha   90.91940940
_cell_angle_beta   89.08059058
_cell_angle_gamma   119.72655591
_symmetry_Int_Tables_number   1
_chemical_formula_structural   TiAl7N8
_chemical_formula_sum   'Ti2 Al14 N16'
_cell_volume   347.67430893
_cell_formula_units_Z   2
loop_
 _symmetry_equiv_pos_site_id
 _symmetry_equiv_pos_as_xyz
  1  'x, y, z'
loop_
 _atom_site_type_symbol
 _atom_site_label
 _atom_site_symmetry_multiplicity
 _atom_site_fract_x
 _atom_site_fract_y
 _atom_site_fract_z
 _atom_site_occupancy
  Al  Al0  1  0.16326658  0.33673342  0.49677167  1
  Al  Al1  1  0.33419583  0.16580417  0.24801010  1
  Al  Al2  1  0.16423159  0.83498023  0.49735790  1
  Al  Al3  1  0.33319811  0.66169639  0.24945820  1
  Al  Al4  1  0.16949042  0.82697644  0.00582830  1
  Al  Al5  1  0.33166438  0.67416085  0.74650059  1
  Al  Al6  1  0.66501977  0.33576841  0.49735790  1
  Al  Al7  1  0.83830361  0.16680189  0.24945820  1
  Al  Al8  1  0.67302356  0.33050958  0.00582830  1
  Al  Al9  1  0.82583915  0.16833562  0.74650059  1
  Al  Al10  1  0.66510954  0.83489046  0.49819507  1
  Al  Al11  1  0.83412156  0.66587844  0.25121291  1
  Al  Al12  1  0.66934828  0.83065172  0.00211190  1
  Al  Al13  1  0.82985547  0.67014453  0.75174460  1
  N  N14  1  0.16993109  0.33006891  0.19163244  1
  N  N15  1  0.33225130  0.16774870  0.44273167  1
  N  N16  1  0.15307594  0.34692406  0.68739412  1
  N  N17  1  0.35152404  0.14847596  0.95195970  1
  N  N18  1  0.16680101  0.82865208  0.19510441  1
  N  N19  1  0.33368420  0.66885209  0.44094198  1
  N  N20  1  0.15677077  0.83063869  0.68966685  1
  N  N21  1  0.34595038  0.67772522  0.93722781  1
  N  N22  1  0.67134792  0.33319899  0.19510441  1
  N  N23  1  0.83114791  0.16631580  0.44094198  1
  N  N24  1  0.66936131  0.34322923  0.68966685  1
  N  N25  1  0.82227478  0.15404962  0.93722781  1
  N  N26  1  0.66804797  0.83195203  0.19206880  1
  N  N27  1  0.83232483  0.66767517  0.44149975  1
  N  N28  1  0.66413090  0.83586910  0.68936652  1
  N  N29  1  0.83707761  0.66292239  0.94350891  1
  Ti  Ti30  1  0.16930128  0.33069872  0.97406358  1
  Ti  Ti31  1  0.32832893  0.17167107  0.75355618  1
