# generated using pymatgen
data_TiAl3N4
_symmetry_space_group_name_H-M   'P 1'
_cell_length_a   6.46494524
_cell_length_b   6.44397213
_cell_length_c   9.78730116
_cell_angle_alpha   90.27100704
_cell_angle_beta   90.00000000
_cell_angle_gamma   120.10772269
_symmetry_Int_Tables_number   1
_chemical_formula_structural   TiAl3N4
_chemical_formula_sum   'Ti4 Al12 N16'
_cell_volume   352.72248983
_cell_formula_units_Z   4
loop_
 _symmetry_equiv_pos_site_id
 _symmetry_equiv_pos_as_xyz
  1  'x, y, z'
loop_
 _atom_site_type_symbol
 _atom_site_label
 _atom_site_symmetry_multiplicity
 _atom_site_fract_x
 _atom_site_fract_y
 _atom_site_fract_z
 _atom_site_occupancy
  Al  Al0  1  0.16212694  0.33516217  0.49757259  1
  Al  Al1  1  0.33261130  0.16522259  0.25323582  1
  Al  Al2  1  0.17326665  0.33924201  0.99796637  1
  Al  Al3  1  0.16479935  0.82959873  0.50000063  1
  Al  Al4  1  0.31651432  0.65370525  0.25111425  1
  Al  Al5  1  0.16684634  0.83369268  0.00071901  1
  Al  Al6  1  0.34113009  0.67348554  0.74793582  1
  Al  Al7  1  0.67303522  0.33516217  0.49757259  1
  Al  Al8  1  0.66597534  0.33924201  0.99796637  1
  Al  Al9  1  0.83292229  0.16584459  0.75081928  1
  Al  Al10  1  0.83719093  0.65370525  0.25111425  1
  Al  Al11  1  0.83235544  0.67348554  0.74793582  1
  N  N12  1  0.18269573  0.33463490  0.19100802  1
  N  N13  1  0.33385009  0.16770018  0.45142743  1
  N  N14  1  0.16247417  0.34000370  0.69491535  1
  N  N15  1  0.33374190  0.16748379  0.93959862  1
  N  N16  1  0.16620206  0.83240412  0.19547190  1
  N  N17  1  0.31167674  0.65705456  0.44476131  1
  N  N18  1  0.16311969  0.82623939  0.69514664  1
  N  N19  1  0.32399561  0.66589958  0.94409089  1
  N  N20  1  0.65193916  0.33463490  0.19100802  1
  N  N21  1  0.84366564  0.18733127  0.43853656  1
  N  N22  1  0.67752952  0.34000370  0.69491535  1
  N  N23  1  0.84336715  0.18673431  0.94944169  1
  N  N24  1  0.64870271  0.79740542  0.22184273  1
  N  N25  1  0.84537783  0.65705456  0.44476131  1
  N  N26  1  0.66905864  0.83811727  0.69882350  1
  N  N27  1  0.84190397  0.66589958  0.94409089  1
  Ti  Ti28  1  0.33487754  0.16975507  0.73759738  1
  Ti  Ti29  1  0.82751967  0.15503933  0.21715129  1
  Ti  Ti30  1  0.67098252  0.84196503  0.44452761  1
  Ti  Ti31  1  0.66854542  0.83709085  0.00693074  1
