# generated using pymatgen
data_TiAl3N4
_symmetry_space_group_name_H-M   'P 1'
_cell_length_a   6.33405098
_cell_length_b   6.33331293
_cell_length_c   10.21168867
_cell_angle_alpha   90.00000001
_cell_angle_beta   90.70718008
_cell_angle_gamma   119.99614566
_symmetry_Int_Tables_number   1
_chemical_formula_structural   TiAl3N4
_chemical_formula_sum   'Ti4 Al12 N16'
_cell_volume   354.74269373
_cell_formula_units_Z   4
loop_
 _symmetry_equiv_pos_site_id
 _symmetry_equiv_pos_as_xyz
  1  'x, y, z'
loop_
 _atom_site_type_symbol
 _atom_site_label
 _atom_site_symmetry_multiplicity
 _atom_site_fract_x
 _atom_site_fract_y
 _atom_site_fract_z
 _atom_site_occupancy
  Ti  Ti0  1  0.17050356  0.35964296  0.50426557  1
  Ti  Ti1  1  0.17050356  0.81086060  0.50426557  1
  Ti  Ti2  1  0.32316215  0.66158107  0.73581214  1
  Ti  Ti3  1  0.67828793  0.33914397  0.50045029  1
  Al  Al4  1  0.33382525  0.16691261  0.25047999  1
  Al  Al5  1  0.16341032  0.33082682  0.99995747  1
  Al  Al6  1  0.33182292  0.16591145  0.76115712  1
  Al  Al7  1  0.33882638  0.66941320  0.23613137  1
  Al  Al8  1  0.16341032  0.83258351  0.99995747  1
  Al  Al9  1  0.83552577  0.16499659  0.24477317  1
  Al  Al10  1  0.66449378  0.33224689  0.00299726  1
  Al  Al11  1  0.82851612  0.16227578  0.75578164  1
  Al  Al12  1  0.67239623  0.83619810  0.49507876  1
  Al  Al13  1  0.83552577  0.67052917  0.24477317  1
  Al  Al14  1  0.66257667  0.83128833  0.99867093  1
  Al  Al15  1  0.82851612  0.66624034  0.75578164  1
  N  N16  1  0.16634608  0.33092462  0.18847191  1
  N  N17  1  0.33937683  0.16968841  0.44202209  1
  N  N18  1  0.15561754  0.31208484  0.70351157  1
  N  N19  1  0.33233874  0.16616936  0.94697049  1
  N  N20  1  0.16634608  0.83542148  0.18847191  1
  N  N21  1  0.36012100  0.68006050  0.41813233  1
  N  N22  1  0.15561754  0.84353273  0.70351157  1
  N  N23  1  0.32669598  0.66334800  0.94533137  1
  N  N24  1  0.66778440  0.33389221  0.19197965  1
  N  N25  1  0.83476563  0.15933625  0.43292600  1
  N  N26  1  0.66128247  0.33064124  0.69954470  1
  N  N27  1  0.82734230  0.16340232  0.94278664  1
  N  N28  1  0.67142247  0.83571123  0.18403122  1
  N  N29  1  0.83476563  0.67542940  0.43292600  1
  N  N30  1  0.67153215  0.83576607  0.68626234  1
  N  N31  1  0.82734230  0.66393998  0.94278664  1
