# generated using pymatgen
data_TiAl3N4
_symmetry_space_group_name_H-M   'P 1'
_cell_length_a   6.42386629
_cell_length_b   6.48598513
_cell_length_c   9.69863397
_cell_angle_alpha   90.56715597
_cell_angle_beta   90.00000000
_cell_angle_gamma   119.68368489
_symmetry_Int_Tables_number   1
_chemical_formula_structural   TiAl3N4
_chemical_formula_sum   'Ti4 Al12 N16'
_cell_volume   351.04348352
_cell_formula_units_Z   4
loop_
 _symmetry_equiv_pos_site_id
 _symmetry_equiv_pos_as_xyz
  1  'x, y, z'
loop_
 _atom_site_type_symbol
 _atom_site_label
 _atom_site_symmetry_multiplicity
 _atom_site_fract_x
 _atom_site_fract_y
 _atom_site_fract_z
 _atom_site_occupancy
  Al  Al0  1  0.16758591  0.33517185  0.49737131  1
  Al  Al1  1  0.32690139  0.15681631  0.24391810  1
  Al  Al2  1  0.15956488  0.31912978  0.00950836  1
  Al  Al3  1  0.33675650  0.17738963  0.75264581  1
  Al  Al4  1  0.16747324  0.83663877  0.50050305  1
  Al  Al5  1  0.33337125  0.66674248  0.23942440  1
  Al  Al6  1  0.82991493  0.15681631  0.24391810  1
  Al  Al7  1  0.66693774  0.33387548  0.00485407  1
  Al  Al8  1  0.84063314  0.17738963  0.75264581  1
  Al  Al9  1  0.66916553  0.83663877  0.50050305  1
  Al  Al10  1  0.83753848  0.67507697  0.24060492  1
  Al  Al11  1  0.83201578  0.66403157  0.74398764  1
  N  N12  1  0.16323587  0.32647177  0.20478991  1
  N  N13  1  0.32486328  0.16031142  0.44349552  1
  N  N14  1  0.16326251  0.32652504  0.69316428  1
  N  N15  1  0.34458967  0.18556532  0.94845359  1
  N  N16  1  0.16691796  0.83174392  0.19190808  1
  N  N17  1  0.33440001  0.66880000  0.45050071  1
  N  N18  1  0.16009024  0.84989736  0.69929813  1
  N  N19  1  0.31562218  0.63124436  0.96719857  1
  N  N20  1  0.66697342  0.33394684  0.20373343  1
  N  N21  1  0.83544815  0.16031142  0.44349552  1
  N  N22  1  0.66706303  0.33412606  0.68704085  1
  N  N23  1  0.84097567  0.18556532  0.94845359  1
  N  N24  1  0.66482596  0.83174392  0.19190808  1
  N  N25  1  0.83858411  0.67716822  0.44343547  1
  N  N26  1  0.68980712  0.84989736  0.69929813  1
  N  N27  1  0.82240908  0.64481818  0.93873928  1
  Ti  Ti28  1  0.17303129  0.82681497  0.96234881  1
  Ti  Ti29  1  0.33893648  0.67787296  0.74678877  1
  Ti  Ti30  1  0.66732153  0.33464306  0.48371581  1
  Ti  Ti31  1  0.65378368  0.82681497  0.96234881  1
