# generated using pymatgen
data_Ti12Al4C3N
_symmetry_space_group_name_H-M   'P 1'
_cell_length_a   8.27410028
_cell_length_b   8.27366761
_cell_length_c   4.13924127
_cell_angle_alpha   90.00000000
_cell_angle_beta   90.00000000
_cell_angle_gamma   90.00003892
_symmetry_Int_Tables_number   1
_chemical_formula_structural   Ti12Al4C3N
_chemical_formula_sum   'Ti12 Al4 C3 N1'
_cell_volume   283.36068322
_cell_formula_units_Z   1
loop_
 _symmetry_equiv_pos_site_id
 _symmetry_equiv_pos_as_xyz
  1  'x, y, z'
loop_
 _atom_site_type_symbol
 _atom_site_label
 _atom_site_symmetry_multiplicity
 _atom_site_fract_x
 _atom_site_fract_y
 _atom_site_fract_z
 _atom_site_occupancy
  Ti  Ti0  1  0.99831624  0.24999561  0.50000000  1
  Ti  Ti1  1  0.24998694  0.24999516  0.00000000  1
  Ti  Ti2  1  0.24999168  0.00037832  0.50000000  1
  Ti  Ti3  1  0.99961017  0.74999291  0.50000000  1
  Ti  Ti4  1  0.24999456  0.74999362  0.00000000  1
  Ti  Ti5  1  0.24999175  0.49960839  0.50000000  1
  Ti  Ti6  1  0.50167036  0.24999595  0.50000000  1
  Ti  Ti7  1  0.75000137  0.24999620  0.00000000  1
  Ti  Ti8  1  0.74999819  0.00167808  0.50000000  1
  Ti  Ti9  1  0.50037647  0.74999291  0.50000000  1
  Ti  Ti10  1  0.74999543  0.74999215  0.00000000  1
  Ti  Ti11  1  0.74999830  0.49830913  0.50000000  1
  Al  Al12  1  0.00031923  0.99963839  0.00000000  1
  Al  Al13  1  0.00031846  0.50034554  0.00000000  1
  Al  Al14  1  0.49967236  0.99963432  0.00000000  1
  Al  Al15  1  0.49967317  0.50034963  0.00000000  1
  C  C16  1  0.24999570  0.24999482  0.50000000  1
  C  C17  1  0.24999485  0.74999758  0.50000000  1
  C  C18  1  0.74999549  0.74999620  0.50000000  1
  N  N19  1  0.74998886  0.24999601  0.50000000  1
