# generated using pymatgen
data_Ti12Al4C3N
_symmetry_space_group_name_H-M   'P 1'
_cell_length_a   8.44039519
_cell_length_b   8.43926240
_cell_length_c   4.22290762
_cell_angle_alpha   90.00000000
_cell_angle_beta   90.00000000
_cell_angle_gamma   90.00000312
_symmetry_Int_Tables_number   1
_chemical_formula_structural   Ti12Al4C3N
_chemical_formula_sum   'Ti12 Al4 C3 N1'
_cell_volume   300.80070706
_cell_formula_units_Z   1
loop_
 _symmetry_equiv_pos_site_id
 _symmetry_equiv_pos_as_xyz
  1  'x, y, z'
loop_
 _atom_site_type_symbol
 _atom_site_label
 _atom_site_symmetry_multiplicity
 _atom_site_fract_x
 _atom_site_fract_y
 _atom_site_fract_z
 _atom_site_occupancy
  Ti  Ti0  1  0.99829287  0.25002719  0.50000000  1
  Ti  Ti1  1  0.24999488  0.25002847  0.00000000  1
  Ti  Ti2  1  0.24999661  0.00048592  0.50000000  1
  Ti  Ti3  1  0.99953737  0.75005865  0.50000000  1
  Ti  Ti4  1  0.24999863  0.75005756  0.00000000  1
  Ti  Ti5  1  0.24999660  0.49958419  0.50000000  1
  Ti  Ti6  1  0.50168956  0.25002749  0.50000000  1
  Ti  Ti7  1  0.74999322  0.25002626  0.00000000  1
  Ti  Ti8  1  0.74998947  0.00175251  0.50000000  1
  Ti  Ti9  1  0.50044626  0.75005888  0.50000000  1
  Ti  Ti10  1  0.74998701  0.75006003  0.00000000  1
  Ti  Ti11  1  0.74998847  0.49831782  0.50000000  1
  Al  Al12  1  0.00025767  0.99976229  0.00000000  1
  Al  Al13  1  0.00025916  0.50034641  0.00000000  1
  Al  Al14  1  0.49973200  0.99975786  0.00000000  1
  Al  Al15  1  0.49973049  0.50035087  0.00000000  1
  C  C16  1  0.24999038  0.25004115  0.50000000  1
  C  C17  1  0.24999466  0.75004154  0.50000000  1
  C  C18  1  0.74999103  0.75004097  0.50000000  1
  N  N19  1  0.74999098  0.25003884  0.50000000  1
