# generated using pymatgen
data_Ti3AlN
_symmetry_space_group_name_H-M   'P 1'
_cell_length_a   4.34448432
_cell_length_b   4.34448432
_cell_length_c   4.34448433
_cell_angle_alpha   90.06539205
_cell_angle_beta   90.06539195
_cell_angle_gamma   90.06539195
_symmetry_Int_Tables_number   1
_chemical_formula_structural   Ti3AlN
_chemical_formula_sum   'Ti3 Al1 N1'
_cell_volume   82.00000024
_cell_formula_units_Z   1
loop_
 _symmetry_equiv_pos_site_id
 _symmetry_equiv_pos_as_xyz
  1  'x, y, z'
loop_
 _atom_site_type_symbol
 _atom_site_label
 _atom_site_symmetry_multiplicity
 _atom_site_fract_x
 _atom_site_fract_y
 _atom_site_fract_z
 _atom_site_occupancy
  Ti  Ti0  1  0.98130949  0.48092249  0.48092249  1
  Ti  Ti1  1  0.48092249  0.48092249  0.98130949  1
  Ti  Ti2  1  0.48092249  0.98130949  0.48092249  1
  Al  Al3  1  0.98145220  0.98145220  0.98145220  1
  N  N4  1  0.48141067  0.48141067  0.48141067  1
