# generated using pymatgen
data_Ti3Al5N8
_symmetry_space_group_name_H-M   'P 1'
_cell_length_a   6.35983852
_cell_length_b   6.35983851
_cell_length_c   10.28228485
_cell_angle_alpha   89.98385165
_cell_angle_beta   90.01614836
_cell_angle_gamma   119.85415753
_symmetry_Int_Tables_number   1
_chemical_formula_structural   Ti3Al5N8
_chemical_formula_sum   'Ti6 Al10 N16'
_cell_volume   360.70219399
_cell_formula_units_Z   2
loop_
 _symmetry_equiv_pos_site_id
 _symmetry_equiv_pos_as_xyz
  1  'x, y, z'
loop_
 _atom_site_type_symbol
 _atom_site_label
 _atom_site_symmetry_multiplicity
 _atom_site_fract_x
 _atom_site_fract_y
 _atom_site_fract_z
 _atom_site_occupancy
  Al  Al0  1  0.16434105  0.33068617  0.49993967  1
  Al  Al1  1  0.33578692  0.17116729  0.25672783  1
  Al  Al2  1  0.33204218  0.16709498  0.74741341  1
  Al  Al3  1  0.33427960  0.66572041  0.72943428  1
  Al  Al4  1  0.66867836  0.33132165  0.50601799  1
  Al  Al5  1  0.83319041  0.16680958  0.25883349  1
  Al  Al6  1  0.83515463  0.16484536  0.74784285  1
  Al  Al7  1  0.66931384  0.83565894  0.49993967  1
  Al  Al8  1  0.82883270  0.66421309  0.25672783  1
  Al  Al9  1  0.83290501  0.66795783  0.74741341  1
  N  N10  1  0.15630327  0.31479504  0.20438591  1
  N  N11  1  0.34243819  0.17707389  0.44538101  1
  N  N12  1  0.16433988  0.32810848  0.68512390  1
  N  N13  1  0.33002124  0.16435546  0.93413213  1
  N  N14  1  0.15623753  0.84376246  0.21193622  1
  N  N15  1  0.33707793  0.66292208  0.44932648  1
  N  N16  1  0.16387670  0.83612329  0.68111783  1
  N  N17  1  0.33132974  0.66867027  0.90769750  1
  N  N18  1  0.66674218  0.33325783  0.20275018  1
  N  N19  1  0.83290329  0.16709670  0.44606289  1
  N  N20  1  0.66717434  0.33282567  0.69227580  1
  N  N21  1  0.83512470  0.16487529  0.93460587  1
  N  N22  1  0.68520497  0.84369672  0.20438591  1
  N  N23  1  0.82292610  0.65756182  0.44538101  1
  N  N24  1  0.67189153  0.83566011  0.68512390  1
  N  N25  1  0.83564453  0.66997877  0.93413213  1
  Ti  Ti26  1  0.17828830  0.35817389  0.00230927  1
  Ti  Ti27  1  0.16754112  0.83245887  0.48817385  1
  Ti  Ti28  1  0.33424507  0.66575494  0.22530048  1
  Ti  Ti29  1  0.17759934  0.82240065  0.00547039  1
  Ti  Ti30  1  0.66673924  0.33326077  0.00232764  1
  Ti  Ti31  1  0.64182612  0.82171169  0.00230927  1
