# generated using pymatgen
data_Ti3Al5N8
_symmetry_space_group_name_H-M   'P 1'
_cell_length_a   6.41939929
_cell_length_b   6.41939929
_cell_length_c   10.17629351
_cell_angle_alpha   89.97181166
_cell_angle_beta   90.02818836
_cell_angle_gamma   120.73425500
_symmetry_Int_Tables_number   1
_chemical_formula_structural   Ti3Al5N8
_chemical_formula_sum   'Ti6 Al10 N16'
_cell_volume   360.45238589
_cell_formula_units_Z   2
loop_
 _symmetry_equiv_pos_site_id
 _symmetry_equiv_pos_as_xyz
  1  'x, y, z'
loop_
 _atom_site_type_symbol
 _atom_site_label
 _atom_site_symmetry_multiplicity
 _atom_site_fract_x
 _atom_site_fract_y
 _atom_site_fract_z
 _atom_site_occupancy
  Al  Al0  1  0.16521360  0.33518090  0.51043082  1
  Al  Al1  1  0.16765105  0.33531254  0.99847164  1
  Al  Al2  1  0.33337631  0.16776126  0.74434083  1
  Al  Al3  1  0.16789074  0.83210925  0.97686582  1
  Al  Al4  1  0.33332659  0.66667342  0.74827537  1
  Al  Al5  1  0.83689959  0.16310040  0.25540101  1
  Al  Al6  1  0.83290504  0.16709495  0.75098558  1
  Al  Al7  1  0.66481911  0.83478639  0.51043082  1
  Al  Al8  1  0.66468747  0.83234894  0.99847164  1
  Al  Al9  1  0.83223873  0.66662370  0.74434083  1
  Ti  Ti10  1  0.31275064  0.13993894  0.25292021  1
  Ti  Ti11  1  0.16703688  0.83296311  0.48027184  1
  Ti  Ti12  1  0.32317912  0.67682089  0.25317018  1
  Ti  Ti13  1  0.66877470  0.33122531  0.48675473  1
  Ti  Ti14  1  0.66591669  0.33408332  0.00601303  1
  Ti  Ti15  1  0.86006105  0.68724937  0.25292021  1
  N  N16  1  0.16133664  0.33233945  0.18757037  1
  N  N17  1  0.33046920  0.18432698  0.45418787  1
  N  N18  1  0.16421697  0.33221231  0.69655810  1
  N  N19  1  0.33044178  0.17185495  0.93514070  1
  N  N20  1  0.17199373  0.82800626  0.15703643  1
  N  N21  1  0.34213312  0.65786689  0.45446190  1
  N  N22  1  0.16735732  0.83264267  0.69978846  1
  N  N23  1  0.33617218  0.66382783  0.93630931  1
  N  N24  1  0.67218475  0.32781526  0.19879212  1
  N  N25  1  0.84465395  0.15534604  0.44517141  1
  N  N26  1  0.66875365  0.33124636  0.69058863  1
  N  N27  1  0.83429307  0.16570692  0.94087309  1
  N  N28  1  0.66766056  0.83866335  0.18757037  1
  N  N29  1  0.81567301  0.66953081  0.45418787  1
  N  N30  1  0.66778770  0.83578302  0.69655810  1
  N  N31  1  0.82814504  0.66955823  0.93514070  1
