# generated using pymatgen
data_HfB8W3
_symmetry_space_group_name_H-M   'P 1'
_cell_length_a   6.18581462
_cell_length_b   6.18581461
_cell_length_c   6.84499839
_cell_angle_alpha   90.00000000
_cell_angle_beta   90.00000000
_cell_angle_gamma   119.94309535
_symmetry_Int_Tables_number   1
_chemical_formula_structural   HfB8W3
_chemical_formula_sum   'Hf2 B16 W6'
_cell_volume   226.95853834
_cell_formula_units_Z   2
loop_
 _symmetry_equiv_pos_site_id
 _symmetry_equiv_pos_as_xyz
  1  'x, y, z'
loop_
 _atom_site_type_symbol
 _atom_site_label
 _atom_site_symmetry_multiplicity
 _atom_site_fract_x
 _atom_site_fract_y
 _atom_site_fract_z
 _atom_site_occupancy
  W  W0  1  0.00000000  0.00000000  0.00000000  1
  W  W1  1  0.00000000  0.50000000  0.00000000  1
  W  W2  1  0.00000000  0.50000000  0.50000000  1
  W  W3  1  0.50000000  0.00000000  0.00000000  1
  W  W4  1  0.50000000  0.00000000  0.50000000  1
  W  W5  1  0.50000000  0.50000000  0.50000000  1
  B  B6  1  0.16515609  0.33484391  0.25000000  1
  B  B7  1  0.33484391  0.16515609  0.25000000  1
  B  B8  1  0.16515609  0.33484391  0.75000000  1
  B  B9  1  0.33484391  0.16515609  0.75000000  1
  B  B10  1  0.16792512  0.83207488  0.25035577  1
  B  B11  1  0.33207488  0.66792512  0.24964423  1
  B  B12  1  0.16792512  0.83207488  0.74964423  1
  B  B13  1  0.33207488  0.66792512  0.75035577  1
  B  B14  1  0.66792512  0.33207488  0.24964423  1
  B  B15  1  0.83207488  0.16792512  0.25035577  1
  B  B16  1  0.66792512  0.33207488  0.75035577  1
  B  B17  1  0.83207488  0.16792512  0.74964423  1
  B  B18  1  0.66515609  0.83484391  0.25000000  1
  B  B19  1  0.83484391  0.66515609  0.25000000  1
  B  B20  1  0.66515609  0.83484391  0.75000000  1
  B  B21  1  0.83484391  0.66515609  0.75000000  1
  Hf  Hf22  1  0.00000000  0.00000000  0.50000000  1
  Hf  Hf23  1  0.50000000  0.50000000  0.00000000  1
