# generated using pymatgen
data_Ti3Al5N8
_symmetry_space_group_name_H-M   'P 1'
_cell_length_a   6.40765703
_cell_length_b   6.39169118
_cell_length_c   10.18594520
_cell_angle_alpha   89.12208914
_cell_angle_beta   89.75616031
_cell_angle_gamma   119.87645129
_symmetry_Int_Tables_number   1
_chemical_formula_structural   Ti3Al5N8
_chemical_formula_sum   'Ti6 Al10 N16'
_cell_volume   361.65504576
_cell_formula_units_Z   2
loop_
 _symmetry_equiv_pos_site_id
 _symmetry_equiv_pos_as_xyz
  1  'x, y, z'
loop_
 _atom_site_type_symbol
 _atom_site_label
 _atom_site_symmetry_multiplicity
 _atom_site_fract_x
 _atom_site_fract_y
 _atom_site_fract_z
 _atom_site_occupancy
  Ti  Ti0  1  0.16744739  0.33950235  0.49719686  1
  Ti  Ti1  1  0.32515927  0.18708122  0.25990509  1
  Ti  Ti2  1  0.32871262  0.63782331  0.25421982  1
  Ti  Ti3  1  0.16384335  0.82940601  0.00391459  1
  Ti  Ti4  1  0.69035474  0.33402367  0.50495892  1
  Ti  Ti5  1  0.84159109  0.17766343  0.72968359  1
  N  N6  1  0.13591713  0.31711533  0.17011992  1
  N  N7  1  0.34037622  0.15813852  0.45500263  1
  N  N8  1  0.18878739  0.34309120  0.70294071  1
  N  N9  1  0.33504153  0.16942942  0.94325090  1
  N  N10  1  0.15627159  0.82724207  0.19321573  1
  N  N11  1  0.34393459  0.68845298  0.44880037  1
  N  N12  1  0.16662540  0.83443665  0.69904801  1
  N  N13  1  0.34039099  0.66580527  0.93748206  1
  N  N14  1  0.66742417  0.33568381  0.18925533  1
  N  N15  1  0.83686484  0.14987567  0.42259156  1
  N  N16  1  0.65708720  0.34711955  0.70177368  1
  N  N17  1  0.82490678  0.16714634  0.93861026  1
  N  N18  1  0.66656760  0.82753347  0.18524504  1
  N  N19  1  0.84453622  0.67708825  0.44055696  1
  N  N20  1  0.66929943  0.83136205  0.68663853  1
  N  N21  1  0.82593629  0.66587958  0.94123103  1
  Al  Al22  1  0.15707217  0.32905884  0.98768416  1
  Al  Al23  1  0.33548654  0.16621602  0.75415125  1
  Al  Al24  1  0.16720104  0.83142166  0.50856872  1
  Al  Al25  1  0.34082189  0.67201830  0.74852646  1
  Al  Al26  1  0.82126140  0.15597489  0.23824550  1
  Al  Al27  1  0.66394659  0.33271296  0.99931752  1
  Al  Al28  1  0.67263186  0.83462734  0.49657994  1
  Al  Al29  1  0.82567513  0.66091340  0.25083792  1
  Al  Al30  1  0.66534331  0.83513211  0.99755129  1
  Al  Al31  1  0.83348422  0.67102433  0.75289563  1
