# generated using pymatgen
data_TiAlN2
_symmetry_space_group_name_H-M   'P 1'
_cell_length_a   6.52530983
_cell_length_b   6.47767147
_cell_length_c   9.87343115
_cell_angle_alpha   90.00000002
_cell_angle_beta   90.06515709
_cell_angle_gamma   119.75879222
_symmetry_Int_Tables_number   1
_chemical_formula_structural   TiAlN2
_chemical_formula_sum   'Ti8 Al8 N16'
_cell_volume   362.30045275
_cell_formula_units_Z   8
loop_
 _symmetry_equiv_pos_site_id
 _symmetry_equiv_pos_as_xyz
  1  'x, y, z'
loop_
 _atom_site_type_symbol
 _atom_site_label
 _atom_site_symmetry_multiplicity
 _atom_site_fract_x
 _atom_site_fract_y
 _atom_site_fract_z
 _atom_site_occupancy
  Ti  Ti0  1  0.16452972  0.33226486  0.48790107  1
  Ti  Ti1  1  0.31916215  0.18113933  0.25369544  1
  Ti  Ti2  1  0.17179073  0.33589537  0.94668464  1
  Ti  Ti3  1  0.32655926  0.16026512  0.72381638  1
  Ti  Ti4  1  0.31916215  0.63802280  0.25369544  1
  Ti  Ti5  1  0.32655926  0.66629413  0.72381638  1
  Ti  Ti6  1  0.86610673  0.18305337  0.24908252  1
  Ti  Ti7  1  0.83806567  0.66903285  0.24571443  1
  N  N8  1  0.17641644  0.33820823  0.15048423  1
  N  N9  1  0.34454196  0.15880983  0.46838967  1
  N  N10  1  0.14472787  0.32236394  0.71405926  1
  N  N11  1  0.35075371  0.16040834  0.93396291  1
  N  N12  1  0.17742464  0.83871232  0.19195944  1
  N  N13  1  0.34454196  0.68573211  0.46838967  1
  N  N14  1  0.13602241  0.81801121  0.69474143  1
  N  N15  1  0.35075371  0.69034537  0.93396291  1
  N  N16  1  0.66411808  0.32896950  0.19471955  1
  N  N17  1  0.81663464  0.15831732  0.45489021  1
  N  N18  1  0.67961559  0.34443730  0.69717775  1
  N  N19  1  0.81631341  0.15815670  0.94295762  1
  N  N20  1  0.66411808  0.83514857  0.19471955  1
  N  N21  1  0.83168078  0.66584040  0.44879103  1
  N  N22  1  0.67961559  0.83517829  0.69717775  1
  N  N23  1  0.83688143  0.66844072  0.95352194  1
  Al  Al24  1  0.15849330  0.82924665  0.50073649  1
  Al  Al25  1  0.17790148  0.83895074  0.99606709  1
  Al  Al26  1  0.67298423  0.33620016  0.50419387  1
  Al  Al27  1  0.66538087  0.32946107  0.00010827  1
  Al  Al28  1  0.81483569  0.15741784  0.75065039  1
  Al  Al29  1  0.67298423  0.83678407  0.50419387  1
  Al  Al30  1  0.66538087  0.83591979  0.00010827  1
  Al  Al31  1  0.82594333  0.66297167  0.75963047  1
