# generated using pymatgen
data_TiAlN2
_symmetry_space_group_name_H-M   'P 1'
_cell_length_a   6.84696023
_cell_length_b   6.84008224
_cell_length_c   8.45099377
_cell_angle_alpha   89.56705714
_cell_angle_beta   90.46222216
_cell_angle_gamma   120.51073166
_symmetry_Int_Tables_number   1
_chemical_formula_structural   TiAlN2
_chemical_formula_sum   'Ti8 Al8 N16'
_cell_volume   340.97437098
_cell_formula_units_Z   8
loop_
 _symmetry_equiv_pos_site_id
 _symmetry_equiv_pos_as_xyz
  1  'x, y, z'
loop_
 _atom_site_type_symbol
 _atom_site_label
 _atom_site_symmetry_multiplicity
 _atom_site_fract_x
 _atom_site_fract_y
 _atom_site_fract_z
 _atom_site_occupancy
  Ti  Ti0  1  0.16239483  0.33806991  0.47656235  1
  Ti  Ti1  1  0.16664207  0.33713207  0.96253774  1
  Ti  Ti2  1  0.15688128  0.81567932  0.46969105  1
  Ti  Ti3  1  0.16537936  0.82888228  0.96842179  1
  Ti  Ti4  1  0.31225997  0.65473996  0.71809440  1
  Ti  Ti5  1  0.68509432  0.34273169  0.47222811  1
  Ti  Ti6  1  0.84391088  0.18142999  0.71976543  1
  Ti  Ti7  1  0.83860442  0.66274767  0.22274235  1
  Al  Al8  1  0.33588325  0.16788630  0.22293002  1
  Al  Al9  1  0.33742749  0.16332619  0.71366437  1
  Al  Al10  1  0.34021483  0.66704761  0.22177863  1
  Al  Al11  1  0.83367435  0.16367575  0.21901513  1
  Al  Al12  1  0.66432088  0.33274207  0.96853783  1
  Al  Al13  1  0.66518033  0.83496867  0.47305361  1
  Al  Al14  1  0.66729906  0.83579121  0.96966425  1
  Al  Al15  1  0.82624596  0.67002895  0.72148138  1
  N  N16  1  0.16805965  0.33172315  0.21844689  1
  N  N17  1  0.33998801  0.16577728  0.46645209  1
  N  N18  1  0.17973550  0.31835479  0.71809090  1
  N  N19  1  0.33947372  0.16873277  0.97272849  1
  N  N20  1  0.18114225  0.83844176  0.21851057  1
  N  N21  1  0.35265193  0.67585377  0.46154445  1
  N  N22  1  0.15457631  0.84484865  0.72076180  1
  N  N23  1  0.34436336  0.67330072  0.97762333  1
  N  N24  1  0.66531402  0.32540064  0.21467501  1
  N  N25  1  0.82377607  0.14808084  0.46221931  1
  N  N26  1  0.65744019  0.33964291  0.72693546  1
  N  N27  1  0.82080131  0.16292130  0.97586158  1
  N  N28  1  0.66874500  0.83527390  0.21616398  1
  N  N29  1  0.81765116  0.67743257  0.47832840  1
  N  N30  1  0.66472133  0.83493556  0.72478701  1
  N  N31  1  0.82014692  0.66239975  0.96670230  1
