# generated using pymatgen
data_TiAlN2
_symmetry_space_group_name_H-M   'P 1'
_cell_length_a   6.82718315
_cell_length_b   6.79344401
_cell_length_c   8.47742805
_cell_angle_alpha   89.99999999
_cell_angle_beta   89.99771998
_cell_angle_gamma   119.83665803
_symmetry_Int_Tables_number   1
_chemical_formula_structural   TiAlN2
_chemical_formula_sum   'Ti8 Al8 N16'
_cell_volume   341.06626907
_cell_formula_units_Z   8
loop_
 _symmetry_equiv_pos_site_id
 _symmetry_equiv_pos_as_xyz
  1  'x, y, z'
loop_
 _atom_site_type_symbol
 _atom_site_label
 _atom_site_symmetry_multiplicity
 _atom_site_fract_x
 _atom_site_fract_y
 _atom_site_fract_z
 _atom_site_occupancy
  Ti  Ti0  1  0.17958590  0.33979296  0.46256468  1
  Ti  Ti1  1  0.33975067  0.17003331  0.22003148  1
  Ti  Ti2  1  0.33975067  0.66971735  0.22003148  1
  Ti  Ti3  1  0.17975052  0.83987526  0.97738418  1
  Ti  Ti4  1  0.65818555  0.33529970  0.46331233  1
  Ti  Ti5  1  0.65791076  0.32297364  0.97671282  1
  Ti  Ti6  1  0.65818555  0.82288584  0.46331233  1
  Ti  Ti7  1  0.65791076  0.83493710  0.97671282  1
  N  N8  1  0.15589928  0.32794966  0.20978324  1
  N  N9  1  0.32315780  0.14738658  0.47936701  1
  N  N10  1  0.16288928  0.33144465  0.71722785  1
  N  N11  1  0.32280531  0.17574147  0.96065353  1
  N  N12  1  0.15640630  0.82820315  0.23018751  1
  N  N13  1  0.32315780  0.67577121  0.47936701  1
  N  N14  1  0.16324472  0.83162236  0.72276478  1
  N  N15  1  0.32280531  0.64706384  0.96065353  1
  N  N16  1  0.69245073  0.34629847  0.22002925  1
  N  N17  1  0.83418548  0.16709274  0.46906042  1
  N  N18  1  0.66441514  0.33239300  0.72006379  1
  N  N19  1  0.84489035  0.17244517  0.96475381  1
  N  N20  1  0.69245073  0.84615226  0.22002925  1
  N  N21  1  0.84555906  0.67277954  0.47519662  1
  N  N22  1  0.66441514  0.83202212  0.72006379  1
  N  N23  1  0.83449698  0.66724850  0.97113280  1
  Al  Al24  1  0.16156270  0.33078137  0.96503068  1
  Al  Al25  1  0.32909175  0.16463640  0.71996884  1
  Al  Al26  1  0.16220057  0.83110028  0.47482693  1
  Al  Al27  1  0.32909175  0.66445533  0.71996884  1
  Al  Al28  1  0.83858116  0.16929058  0.21924028  1
  Al  Al29  1  0.83287860  0.16643930  0.71583713  1
  Al  Al30  1  0.83902163  0.66951082  0.22054094  1
  Al  Al31  1  0.83331212  0.66665606  0.72419006  1
