# generated using pymatgen
data_ZrB8W3
_symmetry_space_group_name_H-M   'P 1'
_cell_length_a   6.17499705
_cell_length_b   6.16863225
_cell_length_c   6.80336955
_cell_angle_alpha   90.00000000
_cell_angle_beta   90.00000000
_cell_angle_gamma   120.03413741
_symmetry_Int_Tables_number   1
_chemical_formula_structural   ZrB8W3
_chemical_formula_sum   'Zr2 B16 W6'
_cell_volume   224.35245791
_cell_formula_units_Z   2
loop_
 _symmetry_equiv_pos_site_id
 _symmetry_equiv_pos_as_xyz
  1  'x, y, z'
loop_
 _atom_site_type_symbol
 _atom_site_label
 _atom_site_symmetry_multiplicity
 _atom_site_fract_x
 _atom_site_fract_y
 _atom_site_fract_z
 _atom_site_occupancy
  Zr  Zr0  1  0.00000000  0.00000000  0.00000000  1
  Zr  Zr1  1  0.50000000  0.00000000  0.00000000  1
  B  B2  1  0.16815444  0.33630888  0.25469347  1
  B  B3  1  0.33483046  0.16966090  0.25524494  1
  B  B4  1  0.16815444  0.33630888  0.74530653  1
  B  B5  1  0.33483046  0.16966090  0.74475506  1
  B  B6  1  0.16516954  0.83033909  0.25524494  1
  B  B7  1  0.33184556  0.66369113  0.25469347  1
  B  B8  1  0.16516954  0.83033909  0.74475506  1
  B  B9  1  0.33184556  0.66369113  0.74530653  1
  B  B10  1  0.66815445  0.33630888  0.25469347  1
  B  B11  1  0.83483045  0.16966090  0.25524494  1
  B  B12  1  0.66815445  0.33630888  0.74530653  1
  B  B13  1  0.83483045  0.16966090  0.74475506  1
  B  B14  1  0.66516955  0.83033909  0.25524494  1
  B  B15  1  0.83184555  0.66369113  0.25469347  1
  B  B16  1  0.66516955  0.83033909  0.74475506  1
  B  B17  1  0.83184555  0.66369113  0.74530653  1
  W  W18  1  0.00000000  0.00000000  0.50000000  1
  W  W19  1  0.00000000  0.50000000  0.00000000  1
  W  W20  1  0.00000000  0.50000000  0.50000000  1
  W  W21  1  0.50000000  0.00000000  0.50000000  1
  W  W22  1  0.50000000  0.50000000  0.00000000  1
  W  W23  1  0.50000000  0.50000000  0.50000000  1
