# generated using pymatgen
data_ZrB8W3
_symmetry_space_group_name_H-M   'P 1'
_cell_length_a   6.10617930
_cell_length_b   6.09801245
_cell_length_c   6.68747757
_cell_angle_alpha   90.00000000
_cell_angle_beta   90.00000000
_cell_angle_gamma   120.04431220
_symmetry_Int_Tables_number   1
_chemical_formula_structural   ZrB8W3
_chemical_formula_sum   'Zr2 B16 W6'
_cell_volume   215.55432202
_cell_formula_units_Z   2
loop_
 _symmetry_equiv_pos_site_id
 _symmetry_equiv_pos_as_xyz
  1  'x, y, z'
loop_
 _atom_site_type_symbol
 _atom_site_label
 _atom_site_symmetry_multiplicity
 _atom_site_fract_x
 _atom_site_fract_y
 _atom_site_fract_z
 _atom_site_occupancy
  Zr  Zr0  1  0.00000000  0.00000000  0.00000000  1
  Zr  Zr1  1  0.50000000  0.00000000  0.00000000  1
  B  B2  1  0.16807929  0.33615859  0.25447708  1
  B  B3  1  0.33470787  0.16941572  0.25476345  1
  B  B4  1  0.16807929  0.33615859  0.74552292  1
  B  B5  1  0.33470787  0.16941572  0.74523655  1
  B  B6  1  0.16529213  0.83058427  0.25476345  1
  B  B7  1  0.33192071  0.66384142  0.25447708  1
  B  B8  1  0.16529213  0.83058427  0.74523655  1
  B  B9  1  0.33192071  0.66384142  0.74552292  1
  B  B10  1  0.66807930  0.33615859  0.25447708  1
  B  B11  1  0.83470786  0.16941572  0.25476345  1
  B  B12  1  0.66807930  0.33615859  0.74552292  1
  B  B13  1  0.83470786  0.16941572  0.74523655  1
  B  B14  1  0.66529214  0.83058427  0.25476345  1
  B  B15  1  0.83192070  0.66384142  0.25447708  1
  B  B16  1  0.66529214  0.83058427  0.74523655  1
  B  B17  1  0.83192070  0.66384142  0.74552292  1
  W  W18  1  0.00000000  0.00000000  0.50000000  1
  W  W19  1  0.00000000  0.50000000  0.00000000  1
  W  W20  1  0.00000000  0.50000000  0.50000000  1
  W  W21  1  0.50000000  0.00000000  0.50000000  1
  W  W22  1  0.50000000  0.50000000  0.00000000  1
  W  W23  1  0.50000000  0.50000000  0.50000000  1
