# generated using pymatgen
data_ZrB8W3
_symmetry_space_group_name_H-M   'P 1'
_cell_length_a   6.20549616
_cell_length_b   6.19890699
_cell_length_c   6.86903533
_cell_angle_alpha   90.00000000
_cell_angle_beta   90.00000000
_cell_angle_gamma   120.03516844
_symmetry_Int_Tables_number   1
_chemical_formula_structural   ZrB8W3
_chemical_formula_sum   'Zr2 B16 W6'
_cell_volume   228.75152538
_cell_formula_units_Z   2
loop_
 _symmetry_equiv_pos_site_id
 _symmetry_equiv_pos_as_xyz
  1  'x, y, z'
loop_
 _atom_site_type_symbol
 _atom_site_label
 _atom_site_symmetry_multiplicity
 _atom_site_fract_x
 _atom_site_fract_y
 _atom_site_fract_z
 _atom_site_occupancy
  Zr  Zr0  1  0.00000000  0.00000000  0.00000000  1
  Zr  Zr1  1  0.50000000  0.00000000  0.00000000  1
  B  B2  1  0.16824769  0.33649539  0.25492979  1
  B  B3  1  0.33490647  0.16981292  0.25550614  1
  B  B4  1  0.16824769  0.33649539  0.74507021  1
  B  B5  1  0.33490647  0.16981292  0.74449386  1
  B  B6  1  0.16509353  0.83018707  0.25550614  1
  B  B7  1  0.33175231  0.66350462  0.25492979  1
  B  B8  1  0.16509353  0.83018707  0.74449386  1
  B  B9  1  0.33175231  0.66350462  0.74507021  1
  B  B10  1  0.66824770  0.33649539  0.25492979  1
  B  B11  1  0.83490646  0.16981292  0.25550614  1
  B  B12  1  0.66824770  0.33649539  0.74507021  1
  B  B13  1  0.83490646  0.16981292  0.74449386  1
  B  B14  1  0.66509354  0.83018707  0.25550614  1
  B  B15  1  0.83175230  0.66350462  0.25492979  1
  B  B16  1  0.66509354  0.83018707  0.74449386  1
  B  B17  1  0.83175230  0.66350462  0.74507021  1
  W  W18  1  0.00000000  0.00000000  0.50000000  1
  W  W19  1  0.00000000  0.50000000  0.00000000  1
  W  W20  1  0.00000000  0.50000000  0.50000000  1
  W  W21  1  0.50000000  0.00000000  0.50000000  1
  W  W22  1  0.50000000  0.50000000  0.00000000  1
  W  W23  1  0.50000000  0.50000000  0.50000000  1
