# generated using pymatgen
data_Ti5Al3N8
_symmetry_space_group_name_H-M   'P 1'
_cell_length_a   6.89009381
_cell_length_b   6.86586917
_cell_length_c   8.46060968
_cell_angle_alpha   90.00824222
_cell_angle_beta   90.31155042
_cell_angle_gamma   120.25985444
_symmetry_Int_Tables_number   1
_chemical_formula_structural   Ti5Al3N8
_chemical_formula_sum   'Ti10 Al6 N16'
_cell_volume   345.70125627
_cell_formula_units_Z   2
loop_
 _symmetry_equiv_pos_site_id
 _symmetry_equiv_pos_as_xyz
  1  'x, y, z'
loop_
 _atom_site_type_symbol
 _atom_site_label
 _atom_site_symmetry_multiplicity
 _atom_site_fract_x
 _atom_site_fract_y
 _atom_site_fract_z
 _atom_site_occupancy
  Al  Al0  1  0.16687309  0.33295396  0.47017877  1
  Al  Al1  1  0.33007522  0.16532458  0.71682831  1
  Al  Al2  1  0.16481408  0.83322453  0.47120720  1
  Al  Al3  1  0.83524405  0.16754183  0.22020600  1
  Al  Al4  1  0.83537813  0.66804837  0.21954432  1
  Al  Al5  1  0.83595677  0.66705299  0.72084441  1
  Ti  Ti6  1  0.33351311  0.16738283  0.21249935  1
  Ti  Ti7  1  0.16689508  0.33269061  0.96932877  1
  Ti  Ti8  1  0.33266614  0.66678346  0.21259511  1
  Ti  Ti9  1  0.17294785  0.83614084  0.97092201  1
  Ti  Ti10  1  0.33283689  0.66432707  0.72686924  1
  Ti  Ti11  1  0.66700891  0.33104792  0.47148682  1
  Ti  Ti12  1  0.66537187  0.33065858  0.96881334  1
  Ti  Ti13  1  0.82990519  0.16435209  0.72592028  1
  Ti  Ti14  1  0.66480523  0.83539723  0.47366922  1
  Ti  Ti15  1  0.66642615  0.83464846  0.96858460  1
  N  N16  1  0.15841132  0.32723241  0.22839580  1
  N  N17  1  0.32504659  0.16242412  0.47309107  1
  N  N18  1  0.16829948  0.32574783  0.71013808  1
  N  N19  1  0.33299234  0.16677559  0.95717456  1
  N  N20  1  0.15602341  0.82949006  0.22748153  1
  N  N21  1  0.32026641  0.66205567  0.47032671  1
  N  N22  1  0.15739707  0.83891507  0.71191875  1
  N  N23  1  0.33271607  0.66557409  0.96963908  1
  N  N24  1  0.68388018  0.34319953  0.22200002  1
  N  N25  1  0.84050459  0.17131972  0.46488326  1
  N  N26  1  0.65831194  0.34364140  0.71860583  1
  N  N27  1  0.83416959  0.16766214  0.98208898  1
  N  N28  1  0.68364674  0.83900390  0.22293326  1
  N  N29  1  0.83874857  0.66935717  0.47055057  1
  N  N30  1  0.67150260  0.82228784  0.72010547  1
  N  N31  1  0.83736532  0.66773813  0.97116929  1
