# generated using pymatgen
data_Ti5Al3N8
_symmetry_space_group_name_H-M   'P 1'
_cell_length_a   6.87425826
_cell_length_b   6.87836775
_cell_length_c   8.46706283
_cell_angle_alpha   89.63221246
_cell_angle_beta   90.20064973
_cell_angle_gamma   120.30476018
_symmetry_Int_Tables_number   1
_chemical_formula_structural   Ti5Al3N8
_chemical_formula_sum   'Ti10 Al6 N16'
_cell_volume   345.63982006
_cell_formula_units_Z   2
loop_
 _symmetry_equiv_pos_site_id
 _symmetry_equiv_pos_as_xyz
  1  'x, y, z'
loop_
 _atom_site_type_symbol
 _atom_site_label
 _atom_site_symmetry_multiplicity
 _atom_site_fract_x
 _atom_site_fract_y
 _atom_site_fract_z
 _atom_site_occupancy
  Al  Al0  1  0.16359148  0.33039904  0.46946051  1
  Al  Al1  1  0.33228222  0.16902180  0.71667921  1
  Al  Al2  1  0.33266191  0.66086350  0.22320428  1
  Al  Al3  1  0.83691919  0.16598296  0.22317861  1
  Al  Al4  1  0.83614308  0.17115614  0.71712817  1
  Al  Al5  1  0.83383805  0.66749085  0.71781755  1
  Ti  Ti6  1  0.33627961  0.16094693  0.21786947  1
  Ti  Ti7  1  0.17004087  0.33392765  0.97054319  1
  Ti  Ti8  1  0.17260606  0.83512208  0.46752743  1
  Ti  Ti9  1  0.16589531  0.83360402  0.97247334  1
  Ti  Ti10  1  0.33548850  0.67482032  0.72325178  1
  Ti  Ti11  1  0.66042071  0.32780951  0.46373802  1
  Ti  Ti12  1  0.66550078  0.33534077  0.97546675  1
  Ti  Ti13  1  0.65865656  0.83289567  0.47118281  1
  Ti  Ti14  1  0.83497638  0.66585795  0.21972679  1
  Ti  Ti15  1  0.66608789  0.83207715  0.97047571  1
  N  N16  1  0.15914423  0.33402118  0.22342280  1
  N  N17  1  0.32282966  0.17607506  0.47622485  1
  N  N18  1  0.16299712  0.32868035  0.71759087  1
  N  N19  1  0.33462943  0.16791804  0.96018463  1
  N  N20  1  0.17243208  0.82311736  0.22086205  1
  N  N21  1  0.32328256  0.64411980  0.46452120  1
  N  N22  1  0.16110183  0.84055106  0.71901922  1
  N  N23  1  0.33266989  0.66357376  0.98028832  1
  N  N24  1  0.67687990  0.32599364  0.22030985  1
  N  N25  1  0.84734748  0.17488376  0.47174922  1
  N  N26  1  0.66747740  0.33290462  0.71839615  1
  N  N27  1  0.83548226  0.17005140  0.96941065  1
  N  N28  1  0.65896406  0.84476776  0.22175397  1
  N  N29  1  0.82996504  0.66662228  0.47595002  1
  N  N30  1  0.68153852  0.84378324  0.71989079  1
  N  N31  1  0.83186993  0.66562035  0.96070175  1
