# generated using pymatgen
data_Ti5Al3N8
_symmetry_space_group_name_H-M   'P 1'
_cell_length_a   6.86982103
_cell_length_b   6.91553503
_cell_length_c   8.44537657
_cell_angle_alpha   90.27931830
_cell_angle_beta   89.61576311
_cell_angle_gamma   120.26033217
_symmetry_Int_Tables_number   1
_chemical_formula_structural   Ti5Al3N8
_chemical_formula_sum   'Ti10 Al6 N16'
_cell_volume   346.54942178
_cell_formula_units_Z   2
loop_
 _symmetry_equiv_pos_site_id
 _symmetry_equiv_pos_as_xyz
  1  'x, y, z'
loop_
 _atom_site_type_symbol
 _atom_site_label
 _atom_site_symmetry_multiplicity
 _atom_site_fract_x
 _atom_site_fract_y
 _atom_site_fract_z
 _atom_site_occupancy
  Al  Al0  1  0.16562077  0.33133304  0.46892393  1
  Al  Al1  1  0.16732942  0.33451120  0.97172651  1
  Al  Al2  1  0.33134478  0.17356049  0.71994621  1
  Al  Al3  1  0.33400812  0.66139281  0.21846408  1
  Al  Al4  1  0.66338488  0.32890115  0.47226374  1
  Al  Al5  1  0.83669424  0.16758745  0.22126527  1
  Ti  Ti6  1  0.33755063  0.16015001  0.21759735  1
  Ti  Ti7  1  0.16386159  0.82714547  0.47408220  1
  Ti  Ti8  1  0.17363827  0.83747303  0.96777603  1
  Ti  Ti9  1  0.32856203  0.67065260  0.72185455  1
  Ti  Ti10  1  0.66617069  0.32957416  0.96818746  1
  Ti  Ti11  1  0.83302319  0.17310393  0.72146555  1
  Ti  Ti12  1  0.66523807  0.82936534  0.47653837  1
  Ti  Ti13  1  0.83353343  0.66541838  0.21387230  1
  Ti  Ti14  1  0.66441676  0.83869523  0.96463007  1
  Ti  Ti15  1  0.83757817  0.66479472  0.72444243  1
  N  N16  1  0.16585232  0.33396635  0.22348909  1
  N  N17  1  0.33371433  0.17426719  0.46922264  1
  N  N18  1  0.17247303  0.32836455  0.71614692  1
  N  N19  1  0.32481939  0.18026160  0.96518191  1
  N  N20  1  0.17318805  0.82654746  0.22111428  1
  N  N21  1  0.32753125  0.65415401  0.46396137  1
  N  N22  1  0.18077020  0.86008193  0.71910426  1
  N  N23  1  0.32422492  0.64724898  0.97813944  1
  N  N24  1  0.67063395  0.32582316  0.22573946  1
  N  N25  1  0.83791939  0.17751838  0.46460751  1
  N  N26  1  0.64658947  0.32154063  0.71158717  1
  N  N27  1  0.85246196  0.17864134  0.97743037  1
  N  N28  1  0.66241037  0.84212865  0.22218514  1
  N  N29  1  0.82513452  0.65315625  0.46874127  1
  N  N30  1  0.66887885  0.83698714  0.72029642  1
  N  N31  1  0.83144294  0.66565336  0.97001674  1
