# generated using pymatgen
data_Ti3AlN4
_symmetry_space_group_name_H-M   'P 1'
_cell_length_a   6.89345732
_cell_length_b   6.91176224
_cell_length_c   8.45508954
_cell_angle_alpha   89.66863129
_cell_angle_beta   90.66450845
_cell_angle_gamma   119.91243114
_symmetry_Int_Tables_number   1
_chemical_formula_structural   Ti3AlN4
_chemical_formula_sum   'Ti12 Al4 N16'
_cell_volume   349.16287558
_cell_formula_units_Z   4
loop_
 _symmetry_equiv_pos_site_id
 _symmetry_equiv_pos_as_xyz
  1  'x, y, z'
loop_
 _atom_site_type_symbol
 _atom_site_label
 _atom_site_symmetry_multiplicity
 _atom_site_fract_x
 _atom_site_fract_y
 _atom_site_fract_z
 _atom_site_occupancy
  Al  Al0  1  0.16569975  0.32985095  0.46997569  1
  Al  Al1  1  0.33584882  0.17014905  0.71997569  1
  Al  Al2  1  0.83584881  0.17014905  0.21997569  1
  Al  Al3  1  0.66569976  0.32985095  0.96997569  1
  Ti  Ti4  1  0.33539061  0.16939160  0.21998250  1
  Ti  Ti5  1  0.16599898  0.33060840  0.96998250  1
  Ti  Ti6  1  0.17177155  0.83455450  0.46809864  1
  Ti  Ti7  1  0.33721707  0.66544550  0.21809864  1
  Ti  Ti8  1  0.16146553  0.83478398  0.97191641  1
  Ti  Ti9  1  0.32668156  0.66521602  0.72191641  1
  Ti  Ti10  1  0.66599899  0.33060840  0.46998250  1
  Ti  Ti11  1  0.83539060  0.16939160  0.71998250  1
  Ti  Ti12  1  0.66146554  0.83478398  0.47191641  1
  Ti  Ti13  1  0.82668155  0.66521602  0.22191641  1
  Ti  Ti14  1  0.67177156  0.83455450  0.96809864  1
  Ti  Ti15  1  0.83721706  0.66544550  0.71809864  1
  N  N16  1  0.15200263  0.32316651  0.22385760  1
  N  N17  1  0.32883614  0.17683349  0.47385760  1
  N  N18  1  0.17298630  0.32331205  0.71612894  1
  N  N19  1  0.34967428  0.17668795  0.96612894  1
  N  N20  1  0.16607590  0.83411336  0.22004558  1
  N  N21  1  0.32147124  0.64455413  0.46999465  1
  N  N22  1  0.17691711  0.85544587  0.71999465  1
  N  N23  1  0.33196254  0.66588664  0.97004558  1
  N  N24  1  0.67298631  0.32331205  0.21612894  1
  N  N25  1  0.84967427  0.17668795  0.46612894  1
  N  N26  1  0.65200264  0.32316651  0.72385760  1
  N  N27  1  0.82883613  0.17683349  0.97385760  1
  N  N28  1  0.67691712  0.85544587  0.21999465  1
  N  N29  1  0.83196253  0.66588664  0.47004558  1
  N  N30  1  0.66607591  0.83411336  0.72004558  1
  N  N31  1  0.82147123  0.64455413  0.96999465  1
