# generated using pymatgen
data_Ti3AlN4
_symmetry_space_group_name_H-M   'P 1'
_cell_length_a   6.89895455
_cell_length_b   6.93099102
_cell_length_c   8.46294999
_cell_angle_alpha   90.21723817
_cell_angle_beta   90.00000000
_cell_angle_gamma   119.84721613
_symmetry_Int_Tables_number   1
_chemical_formula_structural   Ti3AlN4
_chemical_formula_sum   'Ti12 Al4 N16'
_cell_volume   350.98894569
_cell_formula_units_Z   4
loop_
 _symmetry_equiv_pos_site_id
 _symmetry_equiv_pos_as_xyz
  1  'x, y, z'
loop_
 _atom_site_type_symbol
 _atom_site_label
 _atom_site_symmetry_multiplicity
 _atom_site_fract_x
 _atom_site_fract_y
 _atom_site_fract_z
 _atom_site_occupancy
  Ti  Ti0  1  0.16757056  0.33472061  0.47007189  1
  Ti  Ti1  1  0.16178359  0.33661044  0.97123504  1
  Ti  Ti2  1  0.33497441  0.16994879  0.72153493  1
  Ti  Ti3  1  0.16598349  0.83196698  0.46858767  1
  Ti  Ti4  1  0.32404210  0.66102925  0.22080120  1
  Ti  Ti5  1  0.16185428  0.82370858  0.97296211  1
  Ti  Ti6  1  0.66715004  0.33472061  0.47007189  1
  Ti  Ti7  1  0.83621359  0.17242720  0.22076640  1
  Ti  Ti8  1  0.67482683  0.33661044  0.97123504  1
  Ti  Ti9  1  0.83551979  0.17103960  0.71733300  1
  Ti  Ti10  1  0.66733589  0.83467176  0.46566262  1
  Ti  Ti11  1  0.83698715  0.66102925  0.22080120  1
  Al  Al12  1  0.33255850  0.16511696  0.21821162  1
  Al  Al13  1  0.33774587  0.67067993  0.72207723  1
  Al  Al14  1  0.66553325  0.83106650  0.96781750  1
  Al  Al15  1  0.83293406  0.67067993  0.72207723  1
  N  N16  1  0.17703147  0.32398152  0.22048254  1
  N  N17  1  0.33173596  0.16347191  0.46605765  1
  N  N18  1  0.17403158  0.34710825  0.72107478  1
  N  N19  1  0.33168484  0.16336967  0.97394134  1
  N  N20  1  0.17568415  0.85136830  0.22085359  1
  N  N21  1  0.33704438  0.66946711  0.47771415  1
  N  N22  1  0.15915800  0.81831601  0.72164502  1
  N  N23  1  0.35098114  0.67578889  0.96296575  1
  N  N24  1  0.64695003  0.32398152  0.22048254  1
  N  N25  1  0.83287563  0.16575126  0.46832874  1
  N  N26  1  0.67307666  0.34710825  0.72107478  1
  N  N27  1  0.82257352  0.14514705  0.96810009  1
  N  N28  1  0.66472159  0.82944316  0.21345600  1
  N  N29  1  0.83242273  0.66946711  0.47771415  1
  N  N30  1  0.66220716  0.82441429  0.72189652  1
  N  N31  1  0.82480775  0.67578889  0.96296575  1
