# generated using pymatgen
data_Ti3AlN4
_symmetry_space_group_name_H-M   'P 1'
_cell_length_a   6.92870581
_cell_length_b   6.87105700
_cell_length_c   8.45455885
_cell_angle_alpha   90.17525273
_cell_angle_beta   89.84477971
_cell_angle_gamma   119.68439474
_symmetry_Int_Tables_number   1
_chemical_formula_structural   Ti3AlN4
_chemical_formula_sum   'Ti12 Al4 N16'
_cell_volume   349.67711636
_cell_formula_units_Z   4
loop_
 _symmetry_equiv_pos_site_id
 _symmetry_equiv_pos_as_xyz
  1  'x, y, z'
loop_
 _atom_site_type_symbol
 _atom_site_label
 _atom_site_symmetry_multiplicity
 _atom_site_fract_x
 _atom_site_fract_y
 _atom_site_fract_z
 _atom_site_occupancy
  Ti  Ti0  1  0.16960984  0.33565813  0.46845285  1
  Ti  Ti1  1  0.33081762  0.15903812  0.21866656  1
  Ti  Ti2  1  0.16148342  0.32630941  0.97104202  1
  Ti  Ti3  1  0.33449647  0.16752335  0.72164513  1
  Ti  Ti4  1  0.17226039  0.83462765  0.47147338  1
  Ti  Ti5  1  0.33483923  0.67234445  0.21560858  1
  Ti  Ti6  1  0.16249702  0.83622814  0.96868682  1
  Ti  Ti7  1  0.33451458  0.66637989  0.72323698  1
  Ti  Ti8  1  0.82693233  0.16066391  0.21790457  1
  Ti  Ti9  1  0.83417068  0.16658351  0.72195898  1
  Ti  Ti10  1  0.66798328  0.83631600  0.96885328  1
  Ti  Ti11  1  0.83648407  0.67025673  0.72048970  1
  N  N12  1  0.16263197  0.33020597  0.22056288  1
  N  N13  1  0.34892133  0.17415353  0.46999509  1
  N  N14  1  0.16343839  0.33061267  0.71924399  1
  N  N15  1  0.35680452  0.17805988  0.97036335  1
  N  N16  1  0.14176371  0.82110389  0.22083274  1
  N  N17  1  0.34926132  0.67439747  0.46893446  1
  N  N18  1  0.16499153  0.83304582  0.72057724  1
  N  N19  1  0.33449049  0.66750680  0.96986638  1
  N  N20  1  0.67381394  0.34761534  0.22299814  1
  N  N21  1  0.81809534  0.15879769  0.46924873  1
  N  N22  1  0.67016012  0.33764905  0.71744988  1
  N  N23  1  0.82122125  0.17618875  0.96999757  1
  N  N24  1  0.67650518  0.82436204  0.22558408  1
  N  N25  1  0.82355294  0.66057738  0.46788303  1
  N  N26  1  0.66949423  0.83390343  0.71266960  1
  N  N27  1  0.82278182  0.65124722  0.97423344  1
  Al  Al28  1  0.66923284  0.33575052  0.46700554  1
  Al  Al29  1  0.66770295  0.33750369  0.97564920  1
  Al  Al30  1  0.66937248  0.83253699  0.46670152  1
  Al  Al31  1  0.82967469  0.66285255  0.22218426  1
