# generated using pymatgen
data_Ti7AlN8
_symmetry_space_group_name_H-M   'P 1'
_cell_length_a   6.96681313
_cell_length_b   6.96681313
_cell_length_c   8.45508565
_cell_angle_alpha   89.83683109
_cell_angle_beta   90.16316895
_cell_angle_gamma   119.92080481
_symmetry_Int_Tables_number   1
_chemical_formula_structural   Ti7AlN8
_chemical_formula_sum   'Ti14 Al2 N16'
_cell_volume   355.68097882
_cell_formula_units_Z   2
loop_
 _symmetry_equiv_pos_site_id
 _symmetry_equiv_pos_as_xyz
  1  'x, y, z'
loop_
 _atom_site_type_symbol
 _atom_site_label
 _atom_site_symmetry_multiplicity
 _atom_site_fract_x
 _atom_site_fract_y
 _atom_site_fract_z
 _atom_site_occupancy
  Ti  Ti0  1  0.16303998  0.33696002  0.47155097  1
  Ti  Ti1  1  0.33328243  0.16671757  0.22120760  1
  Ti  Ti2  1  0.16640629  0.33359371  0.96877081  1
  Ti  Ti3  1  0.33676679  0.16323321  0.71848265  1
  Ti  Ti4  1  0.16449754  0.82650860  0.46824631  1
  Ti  Ti5  1  0.33378597  0.66635748  0.21943504  1
  Ti  Ti6  1  0.16630689  0.83390318  0.97056412  1
  Ti  Ti7  1  0.33588276  0.67367922  0.72176870  1
  Ti  Ti8  1  0.67349140  0.33550246  0.46824631  1
  Ti  Ti9  1  0.83364252  0.16621403  0.21943504  1
  Ti  Ti10  1  0.66609682  0.33369311  0.97056412  1
  Ti  Ti11  1  0.82632078  0.16411724  0.72176870  1
  Ti  Ti12  1  0.83455364  0.66544636  0.21939895  1
  Ti  Ti13  1  0.66561750  0.83438250  0.97060894  1
  N  N14  1  0.16640780  0.33359220  0.22041664  1
  N  N15  1  0.33397391  0.16602609  0.47021697  1
  N  N16  1  0.16576639  0.33423361  0.71980767  1
  N  N17  1  0.33321815  0.16678185  0.96958759  1
  N  N18  1  0.16529437  0.83248713  0.21927313  1
  N  N19  1  0.35478833  0.67798443  0.47099218  1
  N  N20  1  0.14558621  0.82218556  0.71902671  1
  N  N21  1  0.33495152  0.66795197  0.97075922  1
  N  N22  1  0.66751287  0.33470563  0.21927313  1
  N  N23  1  0.82201557  0.14521167  0.47099218  1
  N  N24  1  0.67781444  0.35441379  0.71902671  1
  N  N25  1  0.83204803  0.16504848  0.97075922  1
  N  N26  1  0.66868320  0.83131680  0.22512404  1
  N  N27  1  0.82532112  0.67467888  0.47321447  1
  N  N28  1  0.67504190  0.82495810  0.71679479  1
  N  N29  1  0.83156306  0.66843694  0.96481787  1
  Al  Al30  1  0.66849240  0.83150760  0.47303161  1
  Al  Al31  1  0.83182943  0.66817057  0.71683760  1
