# generated using pymatgen
data_Ti7AlN8
_symmetry_space_group_name_H-M   'P 1'
_cell_length_a   6.97599306
_cell_length_b   6.96599045
_cell_length_c   8.45580263
_cell_angle_alpha   89.83008304
_cell_angle_beta   90.00000000
_cell_angle_gamma   120.04751126
_symmetry_Int_Tables_number   1
_chemical_formula_structural   Ti7AlN8
_chemical_formula_sum   'Ti14 Al2 N16'
_cell_volume   355.68349658
_cell_formula_units_Z   2
loop_
 _symmetry_equiv_pos_site_id
 _symmetry_equiv_pos_as_xyz
  1  'x, y, z'
loop_
 _atom_site_type_symbol
 _atom_site_label
 _atom_site_symmetry_multiplicity
 _atom_site_fract_x
 _atom_site_fract_y
 _atom_site_fract_z
 _atom_site_occupancy
  Ti  Ti0  1  0.16407770  0.33775641  0.47179400  1
  Ti  Ti1  1  0.33698608  0.17397216  0.22148601  1
  Ti  Ti2  1  0.16620837  0.33254030  0.96941801  1
  Ti  Ti3  1  0.33360188  0.16720374  0.71880024  1
  Ti  Ti4  1  0.16319476  0.82638953  0.46839213  1
  Ti  Ti5  1  0.33558553  0.66201021  0.21822012  1
  Ti  Ti6  1  0.16664258  0.83328516  0.97125009  1
  Ti  Ti7  1  0.33372113  0.66767224  0.72057337  1
  Ti  Ti8  1  0.67367870  0.33775641  0.47179400  1
  Ti  Ti9  1  0.66633190  0.33254030  0.96941801  1
  Ti  Ti10  1  0.83444781  0.16889562  0.72068768  1
  Ti  Ti11  1  0.82642469  0.66201021  0.21822012  1
  Ti  Ti12  1  0.66545358  0.83090714  0.96938331  1
  Ti  Ti13  1  0.83395111  0.66767224  0.72057337  1
  N  N14  1  0.14522689  0.32320934  0.22097765  1
  N  N15  1  0.33423210  0.16846419  0.46977317  1
  N  N16  1  0.16512708  0.33304164  0.72075873  1
  N  N17  1  0.33352226  0.16704449  0.97038409  1
  N  N18  1  0.16598875  0.83197752  0.22017933  1
  N  N19  1  0.35440249  0.67656257  0.46901823  1
  N  N20  1  0.16679978  0.83359957  0.71956867  1
  N  N21  1  0.33476732  0.66717743  0.96924419  1
  N  N22  1  0.67798243  0.32320934  0.22097765  1
  N  N23  1  0.82493110  0.14986221  0.46681968  1
  N  N24  1  0.66791455  0.33304164  0.72075873  1
  N  N25  1  0.83134265  0.16268531  0.97517537  1
  N  N26  1  0.67472245  0.84944489  0.22324266  1
  N  N27  1  0.82216007  0.67656257  0.46901823  1
  N  N28  1  0.66847118  0.83694234  0.71486166  1
  N  N29  1  0.83241011  0.66717743  0.96924419  1
  Al  Al30  1  0.83155463  0.16310926  0.22304717  1
  Al  Al31  1  0.66813834  0.83627668  0.46694020  1
