# generated using pymatgen
data_Ti7AlN8
_symmetry_space_group_name_H-M   'P 1'
_cell_length_a   6.94740585
_cell_length_b   6.92339394
_cell_length_c   8.47904358
_cell_angle_alpha   89.99999996
_cell_angle_beta   90.00016387
_cell_angle_gamma   119.88573427
_symmetry_Int_Tables_number   1
_chemical_formula_structural   Ti7AlN8
_chemical_formula_sum   'Ti14 Al2 N16'
_cell_volume   353.60477099
_cell_formula_units_Z   2
loop_
 _symmetry_equiv_pos_site_id
 _symmetry_equiv_pos_as_xyz
  1  'x, y, z'
loop_
 _atom_site_type_symbol
 _atom_site_label
 _atom_site_symmetry_multiplicity
 _atom_site_fract_x
 _atom_site_fract_y
 _atom_site_fract_z
 _atom_site_occupancy
  Ti  Ti0  1  0.17372928  0.33686466  0.46992682  1
  Ti  Ti1  1  0.33437023  0.16722457  0.21996248  1
  Ti  Ti2  1  0.33437023  0.16714564  0.71996248  1
  Ti  Ti3  1  0.33437023  0.66714565  0.21996248  1
  Ti  Ti4  1  0.17372928  0.83686465  0.96992682  1
  Ti  Ti5  1  0.33437023  0.66722458  0.71996248  1
  Ti  Ti6  1  0.66288270  0.33826203  0.46999869  1
  Ti  Ti7  1  0.83294098  0.16647049  0.22371851  1
  Ti  Ti8  1  0.66288270  0.32462069  0.96999869  1
  Ti  Ti9  1  0.83316665  0.16658332  0.71637989  1
  Ti  Ti10  1  0.66288270  0.82462068  0.46999869  1
  Ti  Ti11  1  0.83316665  0.66658333  0.21637989  1
  Ti  Ti12  1  0.66288270  0.83826202  0.96999869  1
  Ti  Ti13  1  0.83294098  0.66647050  0.72371851  1
  N  N14  1  0.16631688  0.33315845  0.21562703  1
  N  N15  1  0.32264227  0.14667056  0.46996672  1
  N  N16  1  0.16666948  0.33333476  0.72432747  1
  N  N17  1  0.32264227  0.17597169  0.96996672  1
  N  N18  1  0.16666948  0.83333475  0.22432747  1
  N  N19  1  0.32264227  0.67597170  0.46996672  1
  N  N20  1  0.16631688  0.83315844  0.71562703  1
  N  N21  1  0.32264227  0.64667057  0.96996672  1
  N  N22  1  0.66598938  0.33306346  0.22000152  1
  N  N23  1  0.83576745  0.16788372  0.47009374  1
  N  N24  1  0.66598938  0.33292594  0.72000152  1
  N  N25  1  0.85393346  0.17696672  0.97002623  1
  N  N26  1  0.66598938  0.83292593  0.22000152  1
  N  N27  1  0.85393346  0.67696673  0.47002623  1
  N  N28  1  0.66598938  0.83306345  0.72000152  1
  N  N29  1  0.83576745  0.66788373  0.97009374  1
  Al  Al30  1  0.16570662  0.33285332  0.97004150  1
  Al  Al31  1  0.16570662  0.83285331  0.47004150  1
