# generated using pymatgen
data_HfB8W3
_symmetry_space_group_name_H-M   'P 1'
_cell_length_a   6.13526809
_cell_length_b   6.13526808
_cell_length_c   6.75943502
_cell_angle_alpha   90.00000000
_cell_angle_beta   90.00000000
_cell_angle_gamma   119.97109005
_symmetry_Int_Tables_number   1
_chemical_formula_structural   HfB8W3
_chemical_formula_sum   'Hf2 B16 W6'
_cell_volume   220.41165779
_cell_formula_units_Z   2
loop_
 _symmetry_equiv_pos_site_id
 _symmetry_equiv_pos_as_xyz
  1  'x, y, z'
loop_
 _atom_site_type_symbol
 _atom_site_label
 _atom_site_symmetry_multiplicity
 _atom_site_fract_x
 _atom_site_fract_y
 _atom_site_fract_z
 _atom_site_occupancy
  W  W0  1  0.00000000  0.00000000  0.00000000  1
  W  W1  1  0.00000000  0.50000000  0.00000000  1
  W  W2  1  0.00000000  0.50000000  0.50000000  1
  W  W3  1  0.50000000  0.00000000  0.00000000  1
  W  W4  1  0.50000000  0.00000000  0.50000000  1
  W  W5  1  0.50000000  0.50000000  0.50000000  1
  B  B6  1  0.16524743  0.33475257  0.25000000  1
  B  B7  1  0.33475257  0.16524743  0.25000000  1
  B  B8  1  0.16524743  0.33475257  0.75000000  1
  B  B9  1  0.33475257  0.16524743  0.75000000  1
  B  B10  1  0.16788653  0.83211347  0.25023606  1
  B  B11  1  0.33211347  0.66788653  0.24976394  1
  B  B12  1  0.16788653  0.83211347  0.74976394  1
  B  B13  1  0.33211347  0.66788653  0.75023606  1
  B  B14  1  0.66788653  0.33211347  0.24976394  1
  B  B15  1  0.83211347  0.16788653  0.25023606  1
  B  B16  1  0.66788653  0.33211347  0.75023606  1
  B  B17  1  0.83211347  0.16788653  0.74976394  1
  B  B18  1  0.66524743  0.83475257  0.25000000  1
  B  B19  1  0.83475257  0.66524743  0.25000000  1
  B  B20  1  0.66524743  0.83475257  0.75000000  1
  B  B21  1  0.83475257  0.66524743  0.75000000  1
  Hf  Hf22  1  0.00000000  0.00000000  0.50000000  1
  Hf  Hf23  1  0.50000000  0.50000000  0.00000000  1
