# generated using pymatgen
data_Ti7AlN8
_symmetry_space_group_name_H-M   'P 1'
_cell_length_a   8.13398158
_cell_length_b   8.15606777
_cell_length_c   8.13442991
_cell_angle_alpha   129.22845840
_cell_angle_beta   117.29769734
_cell_angle_gamma   84.69908454
_symmetry_Int_Tables_number   1
_chemical_formula_structural   Ti7AlN8
_chemical_formula_sum   'Ti14 Al2 N16'
_cell_volume   355.83310111
_cell_formula_units_Z   2
loop_
 _symmetry_equiv_pos_site_id
 _symmetry_equiv_pos_as_xyz
  1  'x, y, z'
loop_
 _atom_site_type_symbol
 _atom_site_label
 _atom_site_symmetry_multiplicity
 _atom_site_fract_x
 _atom_site_fract_y
 _atom_site_fract_z
 _atom_site_occupancy
  Ti  Ti0  1  0.69304775  0.66599453  0.52630803  1
  Ti  Ti1  1  0.20424284  0.16734314  0.53777856  1
  Ti  Ti2  1  0.44974969  0.66703276  0.78352281  1
  Ti  Ti3  1  0.19960955  0.66605387  0.03295217  1
  Ti  Ti4  1  0.94697024  0.16598716  0.77992368  1
  Ti  Ti5  1  0.68948982  0.16729698  0.02300527  1
  Ti  Ti6  1  0.94355653  0.66710954  0.27723984  1
  Ti  Ti7  1  0.44607764  0.16588259  0.27904296  1
  Ti  Ti8  1  0.11443903  0.83279365  0.77829605  1
  Ti  Ti9  1  0.61501638  0.33259601  0.77768471  1
  Ti  Ti10  1  0.86537625  0.83520508  0.02980230  1
  Ti  Ti11  1  0.61295792  0.83504606  0.28229588  1
  Ti  Ti12  1  0.36040375  0.32936140  0.02887277  1
  Ti  Ti13  1  0.36142149  0.83385586  0.53240034  1
  N  N14  1  0.44253494  0.66028014  0.27776292  1
  N  N15  1  0.95022808  0.18071117  0.29042400  1
  N  N16  1  0.19008760  0.64837693  0.51825732  1
  N  N17  1  0.94488696  0.65414198  0.76920312  1
  N  N18  1  0.70667526  0.17612455  0.52953690  1
  N  N19  1  0.44804890  0.17074544  0.78267047  1
  N  N20  1  0.69985589  0.66717684  0.02728466  1
  N  N21  1  0.19029508  0.17511442  0.04485236  1
  N  N22  1  0.86265833  0.83392035  0.53061828  1
  N  N23  1  0.35957120  0.33314460  0.52465737  1
  N  N24  1  0.61427097  0.83588632  0.78190809  1
  N  N25  1  0.36342661  0.83392454  0.03134914  1
  N  N26  1  0.10744092  0.33192324  0.77328063  1
  N  N27  1  0.86846587  0.33316294  0.03360373  1
  N  N28  1  0.11408970  0.83597696  0.28169270  1
  N  N29  1  0.61854576  0.33186535  0.28444838  1
  Al  Al30  1  0.11002925  0.33237304  0.28223342  1
  Al  Al31  1  0.86652980  0.33359258  0.52709116  1
