# generated using pymatgen
data_Ti3AlN4
_symmetry_space_group_name_H-M   'P 1'
_cell_length_a   8.12074002
_cell_length_b   8.11189773
_cell_length_c   5.99861103
_cell_angle_alpha   89.95770419
_cell_angle_beta   90.13789334
_cell_angle_gamma   117.18240660
_symmetry_Int_Tables_number   1
_chemical_formula_structural   Ti3AlN4
_chemical_formula_sum   'Ti12 Al4 N16'
_cell_volume   351.51277377
_cell_formula_units_Z   4
loop_
 _symmetry_equiv_pos_site_id
 _symmetry_equiv_pos_as_xyz
  1  'x, y, z'
loop_
 _atom_site_type_symbol
 _atom_site_label
 _atom_site_symmetry_multiplicity
 _atom_site_fract_x
 _atom_site_fract_y
 _atom_site_fract_z
 _atom_site_occupancy
  Ti  Ti0  1  0.97076983  0.47170146  0.32928539  1
  Ti  Ti1  1  0.21555672  0.21344247  0.33280797  1
  Ti  Ti2  1  0.09006850  0.34206217  0.83120309  1
  Ti  Ti3  1  0.47165123  0.96826535  0.33633518  1
  Ti  Ti4  1  0.34280590  0.08944276  0.83127266  1
  Ti  Ti5  1  0.84771308  0.60158638  0.83584312  1
  Ti  Ti6  1  0.84963759  0.10248015  0.16842617  1
  Ti  Ti7  1  0.72242097  0.22471549  0.66535578  1
  Ti  Ti8  1  0.09916736  0.84583548  0.16972654  1
  Ti  Ti9  1  0.97572423  0.97634889  0.66610763  1
  Ti  Ti10  1  0.21625881  0.71498320  0.66358653  1
  Ti  Ti11  1  0.46202662  0.46250000  0.66764364  1
  N  N12  1  0.23007172  0.71244991  0.32216470  1
  N  N13  1  0.47430983  0.47493197  0.32351890  1
  N  N14  1  0.35216202  0.59776937  0.84366835  1
  N  N15  1  0.71316690  0.22772903  0.32324525  1
  N  N16  1  0.59394741  0.34794860  0.84434121  1
  N  N17  1  0.96251944  0.96373514  0.33219097  1
  N  N18  1  0.83584541  0.09052918  0.83912803  1
  N  N19  1  0.09675227  0.84289355  0.83808449  1
  N  N20  1  0.83223741  0.59743211  0.17437282  1
  N  N21  1  0.10421092  0.35131083  0.16553425  1
  N  N22  1  0.96705510  0.47321073  0.66354593  1
  N  N23  1  0.35392256  0.10017133  0.16721439  1
  N  N24  1  0.21784571  0.21829086  0.66688742  1
  N  N25  1  0.59577937  0.83678238  0.16176432  1
  N  N26  1  0.47721117  0.96167471  0.67294087  1
  N  N27  1  0.71246817  0.72349826  0.65985795  1
  Al  Al28  1  0.71631028  0.72118107  0.33499837  1
  Al  Al29  1  0.59678806  0.84186879  0.83705946  1
  Al  Al30  1  0.59327316  0.35083089  0.16769849  1
  Al  Al31  1  0.35032226  0.59239752  0.16419014  1
