# generated using pymatgen
data_ZrB2
_symmetry_space_group_name_H-M   'P 1'
_cell_length_a   6.32514623
_cell_length_b   6.32514623
_cell_length_c   7.06139626
_cell_angle_alpha   90.00000000
_cell_angle_beta   90.00000000
_cell_angle_gamma   119.99999995
_symmetry_Int_Tables_number   1
_chemical_formula_structural   ZrB2
_chemical_formula_sum   'Zr8 B16'
_cell_volume   244.65965319
_cell_formula_units_Z   8
loop_
 _symmetry_equiv_pos_site_id
 _symmetry_equiv_pos_as_xyz
  1  'x, y, z'
loop_
 _atom_site_type_symbol
 _atom_site_label
 _atom_site_symmetry_multiplicity
 _atom_site_fract_x
 _atom_site_fract_y
 _atom_site_fract_z
 _atom_site_occupancy
  Zr  Zr0  1  0.00000000  0.00000000  0.00000000  1
  Zr  Zr1  1  0.00000000  0.00000000  0.50000000  1
  Zr  Zr2  1  0.00000000  0.50000000  0.00000000  1
  Zr  Zr3  1  0.00000000  0.50000000  0.50000000  1
  Zr  Zr4  1  0.50000000  0.00000000  0.00000000  1
  Zr  Zr5  1  0.50000000  0.00000000  0.50000000  1
  Zr  Zr6  1  0.50000000  0.50000000  0.00000000  1
  Zr  Zr7  1  0.50000000  0.50000000  0.50000000  1
  B  B8  1  0.16666667  0.33333333  0.25000000  1
  B  B9  1  0.33333333  0.16666667  0.25000000  1
  B  B10  1  0.16666667  0.33333333  0.75000000  1
  B  B11  1  0.33333333  0.16666667  0.75000000  1
  B  B12  1  0.16666667  0.83333333  0.25000000  1
  B  B13  1  0.33333333  0.66666667  0.25000000  1
  B  B14  1  0.16666667  0.83333333  0.75000000  1
  B  B15  1  0.33333333  0.66666667  0.75000000  1
  B  B16  1  0.66666667  0.33333333  0.25000000  1
  B  B17  1  0.83333333  0.16666667  0.25000000  1
  B  B18  1  0.66666667  0.33333333  0.75000000  1
  B  B19  1  0.83333333  0.16666667  0.75000000  1
  B  B20  1  0.66666667  0.83333333  0.25000000  1
  B  B21  1  0.83333333  0.66666667  0.25000000  1
  B  B22  1  0.66666667  0.83333333  0.75000000  1
  B  B23  1  0.83333333  0.66666667  0.75000000  1
