# generated using pymatgen
data_Ti5Al3N8
_symmetry_space_group_name_H-M   'P 1'
_cell_length_a   8.18751569
_cell_length_b   8.21211051
_cell_length_c   8.23445582
_cell_angle_alpha   133.18940159
_cell_angle_beta   107.90309915
_cell_angle_gamma   90.52462086
_symmetry_Int_Tables_number   1
_chemical_formula_structural   Ti5Al3N8
_chemical_formula_sum   'Ti10 Al6 N16'
_cell_volume   364.38267481
_cell_formula_units_Z   2
loop_
 _symmetry_equiv_pos_site_id
 _symmetry_equiv_pos_as_xyz
  1  'x, y, z'
loop_
 _atom_site_type_symbol
 _atom_site_label
 _atom_site_symmetry_multiplicity
 _atom_site_fract_x
 _atom_site_fract_y
 _atom_site_fract_z
 _atom_site_occupancy
  Ti  Ti0  1  0.68175673  0.67282182  0.50900131  1
  Ti  Ti1  1  0.21975219  0.16382140  0.55090229  1
  Ti  Ti2  1  0.20251065  0.66480529  0.04093079  1
  Ti  Ti3  1  0.66747244  0.16652388  0.00004058  1
  Ti  Ti4  1  0.06491910  0.81733675  0.75003506  1
  Ti  Ti5  1  0.61689892  0.34264790  0.78058033  1
  Ti  Ti6  1  0.84099951  0.85226060  0.99664265  1
  Ti  Ti7  1  0.05147502  0.31265073  0.23208105  1
  Ti  Ti8  1  0.36815583  0.82645104  0.53502908  1
  Ti  Ti9  1  0.84829916  0.34511589  0.49557503  1
  N  N10  1  0.46620467  0.66557839  0.27671678  1
  N  N11  1  0.00211347  0.16258809  0.33871241  1
  N  N12  1  0.20272256  0.65127255  0.54560145  1
  N  N13  1  0.99381052  0.65859215  0.83970357  1
  N  N14  1  0.72100167  0.16175206  0.53643362  1
  N  N15  1  0.45073831  0.17975067  0.79530645  1
  N  N16  1  0.72355433  0.68637307  0.06014474  1
  N  N17  1  0.21291065  0.16898501  0.05349638  1
  N  N18  1  0.88792816  0.84659710  0.54105453  1
  N  N19  1  0.40149256  0.33712331  0.55742894  1
  N  N20  1  0.59349008  0.81827506  0.77149529  1
  N  N21  1  0.39011770  0.84003193  0.05282017  1
  N  N22  1  0.14010647  0.32579540  0.81802634  1
  N  N23  1  0.87314792  0.34841669  0.02576682  1
  N  N24  1  0.14269803  0.82152156  0.31466458  1
  N  N25  1  0.60598305  0.32397955  0.28094873  1
  Al  Al26  1  0.40583883  0.65423464  0.74471923  1
  Al  Al27  1  0.91776160  0.16714542  0.74075293  1
  Al  Al28  1  0.92113043  0.67907291  0.25334618  1
  Al  Al29  1  0.41085113  0.16555171  0.25054780  1
  Al  Al30  1  0.59221414  0.84000356  0.24904913  1
  Al  Al31  1  0.34194416  0.33292383  0.02244578  1
