# generated using pymatgen
data_TiAlN2
_symmetry_space_group_name_H-M   'P 1'
_cell_length_a   6.93015845
_cell_length_b   6.83835462
_cell_length_c   4.18320069
_cell_angle_alpha   89.99569454
_cell_angle_beta   90.00849685
_cell_angle_gamma   120.44509566
_symmetry_Int_Tables_number   1
_chemical_formula_structural   TiAlN2
_chemical_formula_sum   'Ti4 Al4 N8'
_cell_volume   170.91049805
_cell_formula_units_Z   4
loop_
 _symmetry_equiv_pos_site_id
 _symmetry_equiv_pos_as_xyz
  1  'x, y, z'
loop_
 _atom_site_type_symbol
 _atom_site_label
 _atom_site_symmetry_multiplicity
 _atom_site_fract_x
 _atom_site_fract_y
 _atom_site_fract_z
 _atom_site_occupancy
  Al  Al0  1  0.67200266  0.33441868  0.43999954  1
  Al  Al1  1  0.66372844  0.83450632  0.43981754  1
  Al  Al2  1  0.33758447  0.66558132  0.93999954  1
  Al  Al3  1  0.82922263  0.16549368  0.93981754  1
  N  N4  1  0.15359331  0.33882792  0.93999510  1
  N  N5  1  0.17551574  0.82043305  0.94010783  1
  N  N6  1  0.67661193  0.33298117  0.94001287  1
  N  N7  1  0.66026149  0.83931587  0.93998161  1
  N  N8  1  0.35508318  0.17956695  0.44010783  1
  N  N9  1  0.34363126  0.66701883  0.44001287  1
  N  N10  1  0.82094613  0.16068413  0.43998161  1
  N  N11  1  0.81476588  0.66117208  0.43999510  1
  Ti  Ti12  1  0.16665520  0.32673151  0.43999115  1
  Ti  Ti13  1  0.16392885  0.83738469  0.44009437  1
  Ti  Ti14  1  0.32654466  0.16261531  0.94009437  1
  Ti  Ti15  1  0.83992421  0.67326849  0.93999115  1
