# generated using pymatgen
data_TiAlN2
_symmetry_space_group_name_H-M   'P 1'
_cell_length_a   8.22822392
_cell_length_b   8.23200590
_cell_length_c   8.20475097
_cell_angle_alpha   134.06430822
_cell_angle_beta   102.08177877
_cell_angle_gamma   95.36974207
_symmetry_Int_Tables_number   1
_chemical_formula_structural   TiAlN2
_chemical_formula_sum   'Ti8 Al8 N16'
_cell_volume   367.17840248
_cell_formula_units_Z   8
loop_
 _symmetry_equiv_pos_site_id
 _symmetry_equiv_pos_as_xyz
  1  'x, y, z'
loop_
 _atom_site_type_symbol
 _atom_site_label
 _atom_site_symmetry_multiplicity
 _atom_site_fract_x
 _atom_site_fract_y
 _atom_site_fract_z
 _atom_site_occupancy
  Al  Al0  1  0.69034153  0.66710095  0.52212526  1
  Al  Al1  1  0.15596455  0.16630012  0.48911864  1
  Al  Al2  1  0.91159239  0.15603239  0.73906630  1
  Al  Al3  1  0.41552989  0.17791736  0.24771137  1
  Al  Al4  1  0.08970381  0.83641915  0.75720474  1
  Al  Al5  1  0.84490541  0.83764956  0.00823994  1
  Al  Al6  1  0.08428874  0.33100668  0.24759232  1
  Al  Al7  1  0.84036654  0.33643324  0.50868912  1
  N  N8  1  0.50963214  0.66573436  0.34486801  1
  N  N9  1  0.97303369  0.16963903  0.30633236  1
  N  N10  1  0.21862000  0.65824336  0.55326291  1
  N  N11  1  0.97293417  0.66863775  0.80416256  1
  N  N12  1  0.73172086  0.17255838  0.56480064  1
  N  N13  1  0.46930763  0.16266892  0.81494174  1
  N  N14  1  0.72687810  0.67503966  0.06165480  1
  N  N15  1  0.22303438  0.16709907  0.06078216  1
  N  N16  1  0.90107504  0.83720355  0.57105908  1
  N  N17  1  0.37908179  0.32120417  0.53911568  1
  N  N18  1  0.65823996  0.83468939  0.82059089  1
  N  N19  1  0.39340323  0.85679042  0.05651095  1
  N  N20  1  0.12440003  0.31176961  0.77976378  1
  N  N21  1  0.89713571  0.31966421  0.04995019  1
  N  N22  1  0.12434526  0.84261737  0.30600175  1
  N  N23  1  0.64967290  0.33663076  0.32567490  1
  Ti  Ti24  1  0.41963618  0.66841134  0.74725490  1
  Ti  Ti25  1  0.18478406  0.66455948  0.01289433  1
  Ti  Ti26  1  0.66452998  0.16576932  0.00156308  1
  Ti  Ti27  1  0.90668409  0.66003426  0.24294006  1
  Ti  Ti28  1  0.57012878  0.32454380  0.74200558  1
  Ti  Ti29  1  0.56184772  0.82312278  0.24687639  1
  Ti  Ti30  1  0.33228142  0.36264701  0.01536103  1
  Ti  Ti31  1  0.33490000  0.82186255  0.47188454  1
