# generated using pymatgen
data_Ti3Al5N8
_symmetry_space_group_name_H-M   'P 1'
_cell_length_a   8.01379494
_cell_length_b   8.01321702
_cell_length_c   8.01521565
_cell_angle_alpha   130.13402525
_cell_angle_beta   116.65749605
_cell_angle_gamma   84.66146870
_symmetry_Int_Tables_number   1
_chemical_formula_structural   Ti3Al5N8
_chemical_formula_sum   'Ti6 Al10 N16'
_cell_volume   336.88133697
_cell_formula_units_Z   2
loop_
 _symmetry_equiv_pos_site_id
 _symmetry_equiv_pos_as_xyz
  1  'x, y, z'
loop_
 _atom_site_type_symbol
 _atom_site_label
 _atom_site_symmetry_multiplicity
 _atom_site_fract_x
 _atom_site_fract_y
 _atom_site_fract_z
 _atom_site_occupancy
  Al  Al0  1  0.69288664  0.66557651  0.52997006  1
  Al  Al1  1  0.19560920  0.16693588  0.52777902  1
  Al  Al2  1  0.19623876  0.66632874  0.03300077  1
  Al  Al3  1  0.69910648  0.16675652  0.03095524  1
  Al  Al4  1  0.10747646  0.82656894  0.77856301  1
  Al  Al5  1  0.61438948  0.33117629  0.77771132  1
  Al  Al6  1  0.86817801  0.83689117  0.02894829  1
  Al  Al7  1  0.11030771  0.33451627  0.28271663  1
  Al  Al8  1  0.36216848  0.83284016  0.53055041  1
  Al  Al9  1  0.86742253  0.34025854  0.53306243  1
  N  N10  1  0.44234005  0.66556948  0.28342524  1
  N  N11  1  0.94731945  0.16762557  0.27990142  1
  N  N12  1  0.19721493  0.66819137  0.53087850  1
  N  N13  1  0.94517397  0.66682058  0.78195784  1
  N  N14  1  0.70390859  0.18783057  0.54382779  1
  N  N15  1  0.44980454  0.16157616  0.77238530  1
  N  N16  1  0.70473862  0.65848424  0.01365019  1
  N  N17  1  0.18667880  0.15911482  0.03236440  1
  N  N18  1  0.86215922  0.82054598  0.53710480  1
  N  N19  1  0.35963196  0.33071734  0.53373527  1
  N  N20  1  0.61805163  0.84116148  0.78144990  1
  N  N21  1  0.34444429  0.82156096  0.01881692  1
  N  N22  1  0.11613762  0.34136208  0.77530626  1
  N  N23  1  0.85723553  0.33097335  0.03099820  1
  N  N24  1  0.12044668  0.84179743  0.28337483  1
  N  N25  1  0.62550570  0.34026966  0.28475691  1
  Ti  Ti26  1  0.45316234  0.67139114  0.79410957  1
  Ti  Ti27  1  0.94536744  0.15978766  0.76964208  1
  Ti  Ti28  1  0.93758203  0.67282020  0.27922534  1
  Ti  Ti29  1  0.44946710  0.16053008  0.27528430  1
  Ti  Ti30  1  0.62142414  0.84159697  0.28071146  1
  Ti  Ti31  1  0.35842164  0.32242379  0.02383630  1
