# generated using pymatgen
data_TiAl3N4
_symmetry_space_group_name_H-M   'P 1'
_cell_length_a   8.13235481
_cell_length_b   8.16696525
_cell_length_c   5.48239948
_cell_angle_alpha   90.64467864
_cell_angle_beta   90.13460948
_cell_angle_gamma   103.34472825
_symmetry_Int_Tables_number   1
_chemical_formula_structural   TiAl3N4
_chemical_formula_sum   'Ti4 Al12 N16'
_cell_volume   354.26397186
_cell_formula_units_Z   4
loop_
 _symmetry_equiv_pos_site_id
 _symmetry_equiv_pos_as_xyz
  1  'x, y, z'
loop_
 _atom_site_type_symbol
 _atom_site_label
 _atom_site_symmetry_multiplicity
 _atom_site_fract_x
 _atom_site_fract_y
 _atom_site_fract_z
 _atom_site_occupancy
  Al  Al0  1  0.00965268  0.49813808  0.33774731  1
  Al  Al1  1  0.23631372  0.23783989  0.34000811  1
  Al  Al2  1  0.12588232  0.37278494  0.83708130  1
  Al  Al3  1  0.49597804  0.01320734  0.33093156  1
  Al  Al4  1  0.36745017  0.12581091  0.83640679  1
  Al  Al5  1  0.88755761  0.62028970  0.83525869  1
  Al  Al6  1  0.87307489  0.12389413  0.16878762  1
  Al  Al7  1  0.75381953  0.25247678  0.66626633  1
  Al  Al8  1  0.12265991  0.87355942  0.16810369  1
  Al  Al9  1  0.99875753  0.99651263  0.66611203  1
  Al  Al10  1  0.24983394  0.75220814  0.66542467  1
  Al  Al11  1  0.49875355  0.49692802  0.66944246  1
  N  N12  1  0.19077450  0.69575352  0.33836430  1
  N  N13  1  0.42497736  0.41991822  0.35209736  1
  N  N14  1  0.31722180  0.56751125  0.82553006  1
  N  N15  1  0.69449443  0.19463114  0.33823879  1
  N  N16  1  0.56336494  0.31171634  0.82703016  1
  N  N17  1  0.94421509  0.94724189  0.33002304  1
  N  N18  1  0.81727220  0.06871583  0.83029924  1
  N  N19  1  0.06791814  0.81649029  0.83338718  1
  N  N20  1  0.83525481  0.56252282  0.16499827  1
  N  N21  1  0.06612519  0.31474609  0.16717939  1
  N  N22  1  0.94768667  0.43786678  0.66752586  1
  N  N23  1  0.31093917  0.06719336  0.16515050  1
  N  N24  1  0.18529197  0.18806417  0.67428176  1
  N  N25  1  0.55982034  0.84212428  0.14978163  1
  N  N26  1  0.43036889  0.95086034  0.65745303  1
  N  N27  1  0.70104448  0.66987457  0.67684415  1
  Ti  Ti28  1  0.73152969  0.73735303  0.33085495  1
  Ti  Ti29  1  0.61986049  0.87342626  0.81114809  1
  Ti  Ti30  1  0.62118130  0.38674719  0.16333317  1
  Ti  Ti31  1  0.39092468  0.62359264  0.17490854  1
