# generated using pymatgen
data_TiAl7N8
_symmetry_space_group_name_H-M   'P 1'
_cell_length_a   8.06068149
_cell_length_b   8.12745641
_cell_length_c   8.06157204
_cell_angle_alpha   134.07234544
_cell_angle_beta   102.08080734
_cell_angle_gamma   95.50160990
_symmetry_Int_Tables_number   1
_chemical_formula_structural   TiAl7N8
_chemical_formula_sum   'Ti2 Al14 N16'
_cell_volume   348.44181447
_cell_formula_units_Z   2
loop_
 _symmetry_equiv_pos_site_id
 _symmetry_equiv_pos_as_xyz
  1  'x, y, z'
loop_
 _atom_site_type_symbol
 _atom_site_label
 _atom_site_symmetry_multiplicity
 _atom_site_fract_x
 _atom_site_fract_y
 _atom_site_fract_z
 _atom_site_occupancy
  Al  Al0  1  0.66464682  0.67218667  0.50064230  1
  Al  Al1  1  0.17399563  0.15980555  0.50387920  1
  Al  Al2  1  0.42203653  0.66859922  0.75650399  1
  Al  Al3  1  0.17148748  0.66554220  0.00442260  1
  Al  Al4  1  0.91564764  0.16438953  0.74241699  1
  Al  Al5  1  0.66426286  0.16919739  0.99885113  1
  Al  Al6  1  0.91440846  0.66904493  0.24801572  1
  Al  Al7  1  0.40917842  0.16241565  0.24588765  1
  Al  Al8  1  0.08178302  0.83276817  0.74826125  1
  Al  Al9  1  0.58505443  0.32906415  0.74617034  1
  Al  Al10  1  0.83270788  0.82930830  0.00067616  1
  Al  Al11  1  0.58350122  0.83145255  0.24896736  1
  Al  Al12  1  0.33274816  0.33033941  0.00115469  1
  Al  Al13  1  0.33714522  0.83464281  0.50126220  1
  N  N14  1  0.47465961  0.66425577  0.30694185  1
  N  N15  1  0.98425221  0.14131363  0.30667018  1
  N  N16  1  0.23720596  0.67959982  0.57385014  1
  N  N17  1  0.98333871  0.67684602  0.82340347  1
  N  N18  1  0.72331230  0.15736350  0.55264972  1
  N  N19  1  0.47438811  0.16578287  0.80645982  1
  N  N20  1  0.72298952  0.66141650  0.05445169  1
  N  N21  1  0.22315922  0.15851645  0.05230710  1
  N  N22  1  0.89225352  0.83424458  0.55803208  1
  N  N23  1  0.39436890  0.33475284  0.56144725  1
  N  N24  1  0.64698795  0.83883379  0.81504856  1
  N  N25  1  0.39440258  0.83430719  0.06255744  1
  N  N26  1  0.14499143  0.33361827  0.81131764  1
  N  N27  1  0.88554571  0.33532910  0.04931251  1
  N  N28  1  0.14574632  0.82818528  0.31100948  1
  N  N29  1  0.63077275  0.33677717  0.30362246  1
  Ti  Ti30  1  0.06998475  0.35066071  0.27015726  1
  Ti  Ti31  1  0.84303665  0.34943996  0.49364976  1
