# generated using pymatgen
data_Fe12Ni3W5
_symmetry_space_group_name_H-M   'P 1'
_cell_length_a   5.74328700
_cell_length_b   5.84574061
_cell_length_c   7.23742664
_cell_angle_alpha   87.42651039
_cell_angle_beta   88.89543928
_cell_angle_gamma   87.53828054
_symmetry_Int_Tables_number   1
_chemical_formula_structural   Fe12Ni3W5
_chemical_formula_sum   'Fe12 Ni3 W5'
_cell_volume   242.48194770
_cell_formula_units_Z   1
loop_
 _symmetry_equiv_pos_site_id
 _symmetry_equiv_pos_as_xyz
  1  'x, y, z'
loop_
 _atom_site_type_symbol
 _atom_site_label
 _atom_site_symmetry_multiplicity
 _atom_site_fract_x
 _atom_site_fract_y
 _atom_site_fract_z
 _atom_site_occupancy
  Ni  Ni0  1  0.98728117  0.00462765  0.50071429  1
  Ni  Ni1  1  0.89908594  0.70616102  0.24899572  1
  Ni  Ni2  1  0.61031986  0.79207610  0.49461578  1
  Fe  Fe3  1  0.00194500  0.98551420  0.99473284  1
  Fe  Fe4  1  0.29788906  0.89149227  0.75824600  1
  Fe  Fe5  1  0.51585955  0.50959746  0.75617600  1
  Fe  Fe6  1  0.20462728  0.61679295  0.00033811  1
  Fe  Fe7  1  0.30397984  0.88592827  0.23385997  1
  Fe  Fe8  1  0.41478241  0.20809115  0.01930700  1
  Fe  Fe9  1  0.51181957  0.50154623  0.24990026  1
  Fe  Fe10  1  0.69853614  0.09900108  0.24279862  1
  Fe  Fe11  1  0.79599901  0.40649466  0.49767815  1
  Fe  Fe12  1  0.89606935  0.69514282  0.75593058  1
  Fe  Fe13  1  0.60176193  0.79168423  0.00969316  1
  Fe  Fe14  1  0.78197942  0.41157761  0.00118658  1
  W  W15  1  0.10942067  0.29917898  0.77224688  1
  W  W16  1  0.07849824  0.29538543  0.22703257  1
  W  W17  1  0.20624402  0.62823657  0.49949260  1
  W  W18  1  0.39863891  0.18108565  0.47841539  1
  W  W19  1  0.68526263  0.09038568  0.75863948  1
