# generated using pymatgen
data_TiAl3N4
_symmetry_space_group_name_H-M   'P 1'
_cell_length_a   9.80181461
_cell_length_b   11.34931374
_cell_length_c   14.70222909
_cell_angle_alpha   68.18107258
_cell_angle_beta   71.48555861
_cell_angle_gamma   72.56436333
_symmetry_Int_Tables_number   1
_chemical_formula_structural   TiAl3N4
_chemical_formula_sum   'Ti16 Al48 N64'
_cell_volume   1408.81079775
_cell_formula_units_Z   16
loop_
 _symmetry_equiv_pos_site_id
 _symmetry_equiv_pos_as_xyz
  1  'x, y, z'
loop_
 _atom_site_type_symbol
 _atom_site_label
 _atom_site_symmetry_multiplicity
 _atom_site_fract_x
 _atom_site_fract_y
 _atom_site_fract_z
 _atom_site_occupancy
  Al  Al0  1  0.22064088  0.14192779  0.81511918  1
  Al  Al1  1  0.41695170  0.54486091  0.65614419  1
  Al  Al2  1  0.66490692  0.42416598  0.78002279  1
  Al  Al3  1  0.21851308  0.63536269  0.32036633  1
  Al  Al4  1  0.47155247  0.51641269  0.44353273  1
  Al  Al5  1  0.72332353  0.39997207  0.56342264  1
  Al  Al6  1  0.96760471  0.27348061  0.69023464  1
  Al  Al7  1  0.28427437  0.61136418  0.09969520  1
  Al  Al8  1  0.53234065  0.48274005  0.22517673  1
  Al  Al9  1  0.78285954  0.35816220  0.34836065  1
  Al  Al10  1  0.03059903  0.23285165  0.47161475  1
  Al  Al11  1  0.59762989  0.46202051  0.00557695  1
  Al  Al12  1  0.84626788  0.32991263  0.12925941  1
  Al  Al13  1  0.09304413  0.19898259  0.25721395  1
  Al  Al14  1  0.91452465  0.30202057  0.91008829  1
  Al  Al15  1  0.15204115  0.18345490  0.03687402  1
  Al  Al16  1  0.27679936  0.10954061  0.59960654  1
  Al  Al17  1  0.33852562  0.07814059  0.38107569  1
  Al  Al18  1  0.57469404  0.95721495  0.50445843  1
  Al  Al19  1  0.10267366  0.69329854  0.75050684  1
  Al  Al20  1  0.40091692  0.05444980  0.16451897  1
  Al  Al21  1  0.64648150  0.92945163  0.27863914  1
  Al  Al22  1  0.16888341  0.66325874  0.53783070  1
  Al  Al23  1  0.45351005  0.02372401  0.95644575  1
  Al  Al24  1  0.72347060  0.89844924  0.06327761  1
  Al  Al25  1  0.96913610  0.76224824  0.19304919  1
  Al  Al26  1  0.02617234  0.73921453  0.97530964  1
  Al  Al27  1  0.37727648  0.31239649  0.85282056  1
  Al  Al28  1  0.55775848  0.71977753  0.69791430  1
  Al  Al29  1  0.81462206  0.59055804  0.82351789  1
  Al  Al30  1  0.36687635  0.81303550  0.35644912  1
  Al  Al31  1  0.13392622  0.43090843  0.72573558  1
  Al  Al32  1  0.94565190  0.52220040  0.38077392  1
  Al  Al33  1  0.19023756  0.40109484  0.50882015  1
  Al  Al34  1  0.75780676  0.62275003  0.04094287  1
  Al  Al35  1  0.00527719  0.49445673  0.16930371  1
  Al  Al36  1  0.25244195  0.37304335  0.29069691  1
  Al  Al37  1  0.31540604  0.34620559  0.07455033  1
  Al  Al38  1  0.43783956  0.28276154  0.63241938  1
  Al  Al39  1  0.49477069  0.25171297  0.41738027  1
  Al  Al40  1  0.74513211  0.12955310  0.53930314  1
  Al  Al41  1  0.24252857  0.87334378  0.79033540  1
  Al  Al42  1  0.56051104  0.22191728  0.20031635  1
  Al  Al43  1  0.06234554  0.95899355  0.45179336  1
  Al  Al44  1  0.30802163  0.84130391  0.57515121  1
  Al  Al45  1  0.87490727  0.06287780  0.10575165  1
  Al  Al46  1  0.12486185  0.93601396  0.22907544  1
  Al  Al47  1  0.93943873  0.03581002  0.88424797  1
  N  N48  1  0.14622995  0.98523584  0.87196734  1
  N  N49  1  0.33967685  0.38742950  0.72099838  1
  N  N50  1  0.58323925  0.26545408  0.84545119  1
  N  N51  1  0.15081493  0.47720388  0.37740722  1
  N  N52  1  0.39658335  0.35942415  0.50120181  1
  N  N53  1  0.64478005  0.23903122  0.62070094  1
  N  N54  1  0.89742204  0.11353765  0.75608252  1
  N  N55  1  0.21169970  0.45248782  0.15962790  1
  N  N56  1  0.45877905  0.32723857  0.28509552  1
  N  N57  1  0.70212955  0.20600729  0.40852364  1
  N  N58  1  0.95346371  0.07670467  0.52707952  1
  N  N59  1  0.28988851  0.41465665  0.94136610  1
  N  N60  1  0.52081000  0.30326004  0.07029933  1
  N  N61  1  0.76906889  0.17138229  0.18870045  1
  N  N62  1  0.02470292  0.03538200  0.31953835  1
  N  N63  1  0.84404111  0.14029582  0.97260291  1
  N  N64  1  0.07897555  0.02364255  0.10056848  1
  N  N65  1  0.20748942  0.95046008  0.65877658  1
  N  N66  1  0.44522485  0.82204809  0.78230992  1
  N  N67  1  0.26856688  0.91902400  0.44337440  1
  N  N68  1  0.50836085  0.80075301  0.57218247  1
  N  N69  1  0.75817919  0.67097242  0.70021186  1
  N  N70  1  0.02567602  0.53940099  0.80705456  1
  N  N71  1  0.32658552  0.89950430  0.22724717  1
  N  N72  1  0.57211850  0.77577087  0.33795911  1
  N  N73  1  0.84445820  0.62549820  0.46198489  1
  N  N74  1  0.10137881  0.50584721  0.59448364  1
  N  N75  1  0.38452721  0.86252535  0.02003390  1
  N  N76  1  0.66330351  0.73849326  0.11672464  1
  N  N77  1  0.90514554  0.60227643  0.25106180  1
  N  N78  1  0.72885947  0.69051874  0.91107195  1
  N  N79  1  0.96066357  0.57913865  0.04208285  1
  N  N80  1  0.29329418  0.15856146  0.91777729  1
  N  N81  1  0.49629469  0.55735084  0.75435254  1
  N  N82  1  0.73966365  0.43027832  0.88583057  1
  N  N83  1  0.30427763  0.65331283  0.41383817  1
  N  N84  1  0.55780996  0.53594040  0.53435702  1
  N  N85  1  0.80719378  0.41137729  0.66043094  1
  N  N86  1  0.05395029  0.27900281  0.78946235  1
  N  N87  1  0.36504370  0.61874452  0.19979874  1
  N  N88  1  0.61584333  0.49510297  0.32185539  1
  N  N89  1  0.86724076  0.36941466  0.44365629  1
  N  N90  1  0.11044255  0.24583354  0.57036475  1
  N  N91  1  0.43167896  0.59561191  0.98336415  1
  N  N92  1  0.68070951  0.46799452  0.10544802  1
  N  N93  1  0.92862005  0.33750665  0.22875917  1
  N  N94  1  0.17587034  0.21683327  0.35114304  1
  N  N95  1  0.99037197  0.32114357  0.00751895  1
  N  N96  1  0.23780808  0.19084271  0.13451062  1
  N  N97  1  0.35746280  0.13030178  0.69332395  1
  N  N98  1  0.58351556  0.98512786  0.84655925  1
  N  N99  1  0.41577138  0.09832763  0.47614277  1
  N  N100  1  0.66889183  0.97910542  0.58416936  1
  N  N101  1  0.94988804  0.82856309  0.72356814  1
  N  N102  1  0.16410860  0.71392699  0.85491379  1
  N  N103  1  0.48367424  0.06868637  0.25838212  1
  N  N104  1  0.71031647  0.92942208  0.38580909  1
  N  N105  1  0.99887013  0.79504171  0.51716503  1
  N  N106  1  0.24913728  0.67992530  0.63310926  1
  N  N107  1  0.55045521  0.03675601  0.04585083  1
  N  N108  1  0.80282691  0.90514576  0.16513642  1
  N  N109  1  0.06189681  0.77607400  0.28219796  1
  N  N110  1  0.86968198  0.88091660  0.94846696  1
  N  N111  1  0.11633292  0.75037548  0.07016099  1
  Ti  Ti112  1  0.35616565  0.58911389  0.87937349  1
  Ti  Ti113  1  0.54349632  0.98447158  0.71899497  1
  Ti  Ti114  1  0.83298868  0.83821823  0.63388405  1
  Ti  Ti115  1  0.90762674  0.80754776  0.40853811  1
  Ti  Ti116  1  0.78748634  0.87036042  0.83731488  1
  Ti  Ti117  1  0.64551785  0.72204114  0.46456223  1
  Ti  Ti118  1  0.89073058  0.59887460  0.58851320  1
  Ti  Ti119  1  0.44324615  0.77968091  0.14739357  1
  Ti  Ti120  1  0.68036462  0.66230155  0.25731435  1
  Ti  Ti121  1  0.52338782  0.79526219  0.90040861  1
  Ti  Ti122  1  0.07757890  0.49592210  0.93767039  1
  Ti  Ti123  1  0.68181217  0.13823348  0.76084794  1
  Ti  Ti124  1  0.99024497  0.00443214  0.66612718  1
  Ti  Ti125  1  0.80525737  0.08578099  0.32843262  1
  Ti  Ti126  1  0.63020370  0.20321712  0.97600183  1
  Ti  Ti127  1  0.18612938  0.91399015  0.00870692  1
