# generated using pymatgen
data_YMnFeCoNi
_symmetry_space_group_name_H-M   'P 1'
_cell_length_a   5.71383538
_cell_length_b   5.72046436
_cell_length_c   9.54908301
_cell_angle_alpha   85.63731526
_cell_angle_beta   76.96505307
_cell_angle_gamma   99.32645780
_symmetry_Int_Tables_number   1
_chemical_formula_structural   YMnFeCoNi
_chemical_formula_sum   'Y4 Mn4 Fe4 Co4 Ni4'
_cell_volume   297.99118218
_cell_formula_units_Z   4
loop_
 _symmetry_equiv_pos_site_id
 _symmetry_equiv_pos_as_xyz
  1  'x, y, z'
loop_
 _atom_site_type_symbol
 _atom_site_label
 _atom_site_symmetry_multiplicity
 _atom_site_fract_x
 _atom_site_fract_y
 _atom_site_fract_z
 _atom_site_occupancy
  Y  Y0  1  0.00299092  0.24706967  0.77437276  1
  Y  Y1  1  0.23890722  0.76892445  0.89862416  1
  Y  Y2  1  0.30107874  0.87368700  0.27607729  1
  Y  Y3  1  0.45450313  0.30044304  -0.01435472  1
  Co  Co4  1  0.19583134  0.76075955  0.61289101  1
  Co  Co5  1  0.47514178  0.46060663  0.68947978  1
  Co  Co6  1  0.62106671  0.78893218  0.50585469  1
  Co  Co7  1  0.81023683  0.70334276  0.26773823  1
  Mn  Mn8  1  0.89149401  0.05664880  0.09330359  1
  Mn  Mn9  1  0.29318109  0.47200441  0.47660878  1
  Mn  Mn10  1  0.44096051  0.15471998  0.51556519  1
  Mn  Mn11  1  0.78764525  0.72913310  0.74161710  1
  Fe  Fe12  1  0.78871619  0.10387223  0.33004170  1
  Fe  Fe13  1  0.85555308  0.47494178  0.50091027  1
  Fe  Fe14  1  0.72142874  0.76520327  -0.00409353  1
  Fe  Fe15  1  0.89026263  0.44713019  0.08534795  1
  Ni  Ni16  1  0.99855318  0.06810526  0.51737774  1
  Ni  Ni17  1  0.12440648  0.39796809  0.25819732  1
  Ni  Ni18  1  0.58244798  0.06514891  0.71263644  1
  Ni  Ni19  1  0.52559414  0.36135871  0.26180424  1
