# generated using pymatgen
data_MnFeCoNiAu
_symmetry_space_group_name_H-M   'P 1'
_cell_length_a   5.74280606
_cell_length_b   5.71771250
_cell_length_c   7.36178766
_cell_angle_alpha   90.75222275
_cell_angle_beta   90.54253299
_cell_angle_gamma   89.58686757
_symmetry_Int_Tables_number   1
_chemical_formula_structural   MnFeCoNiAu
_chemical_formula_sum   'Mn4 Fe4 Co4 Ni4 Au4'
_cell_volume   241.69181551
_cell_formula_units_Z   4
loop_
 _symmetry_equiv_pos_site_id
 _symmetry_equiv_pos_as_xyz
  1  'x, y, z'
loop_
 _atom_site_type_symbol
 _atom_site_label
 _atom_site_symmetry_multiplicity
 _atom_site_fract_x
 _atom_site_fract_y
 _atom_site_fract_z
 _atom_site_occupancy
  Au  Au0  1  0.08082932  0.28680992  0.74365927  1
  Au  Au1  1  0.20197484  0.62365876  0.99225096  1
  Au  Au2  1  0.29673927  0.90619333  0.27264748  1
  Au  Au3  1  0.41143690  0.18553593  0.99736620  1
  Co  Co4  1  0.30742449  0.88830375  0.71752049  1
  Co  Co5  1  0.52815879  0.51202229  0.73796723  1
  Co  Co6  1  0.60944547  0.78305099  0.50419326  1
  Co  Co7  1  0.87926216  0.70076967  0.25715349  1
  Mn  Mn8  1  0.94638433  0.01000515  0.00973388  1
  Mn  Mn9  1  0.22004727  0.58602956  0.51099795  1
  Mn  Mn10  1  0.41409972  0.23032969  0.50377035  1
  Mn  Mn11  1  0.89093831  0.71535057  0.73112637  1
  Fe  Fe12  1  0.71692661  0.10254726  0.26308812  1
  Fe  Fe13  1  0.78346567  0.40598352  0.49235211  1
  Fe  Fe14  1  0.64721942  0.78039729  0.98777553  1
  Fe  Fe15  1  0.80253145  0.39989361  0.02131891  1
  Ni  Ni16  1  0.97975001  0.98924804  0.49936895  1
  Ni  Ni17  1  0.08731659  0.31286587  0.26569760  1
  Ni  Ni18  1  0.68636004  0.08575542  0.73445862  1
  Ni  Ni19  1  0.50968934  0.49524939  0.25755320  1
