# generated using pymatgen
data_ZrMnFeCoNi
_symmetry_space_group_name_H-M   'P 1'
_cell_length_a   5.80905823
_cell_length_b   5.81019687
_cell_length_c   7.69895407
_cell_angle_alpha   91.74045051
_cell_angle_beta   90.54150887
_cell_angle_gamma   86.23040659
_symmetry_Int_Tables_number   1
_chemical_formula_structural   ZrMnFeCoNi
_chemical_formula_sum   'Zr4 Mn4 Fe4 Co4 Ni4'
_cell_volume   259.16429079
_cell_formula_units_Z   4
loop_
 _symmetry_equiv_pos_site_id
 _symmetry_equiv_pos_as_xyz
  1  'x, y, z'
loop_
 _atom_site_type_symbol
 _atom_site_label
 _atom_site_symmetry_multiplicity
 _atom_site_fract_x
 _atom_site_fract_y
 _atom_site_fract_z
 _atom_site_occupancy
  Zr  Zr0  1  0.07727121  0.27237421  0.71625062  1
  Zr  Zr1  1  0.19530993  0.64035150  0.99232549  1
  Zr  Zr2  1  0.27977439  0.92148123  0.30736004  1
  Zr  Zr3  1  0.42534163  0.17490000  0.00426266  1
  Co  Co4  1  0.28483762  0.86946879  0.72010623  1
  Co  Co5  1  0.54737815  0.49217233  0.74550879  1
  Co  Co6  1  0.59135667  0.77557490  0.51795635  1
  Co  Co7  1  0.86164663  0.70514990  0.25651506  1
  Mn  Mn8  1  0.95325032  0.02562819  -0.00064089  1
  Mn  Mn9  1  0.20735138  0.57485623  0.50584177  1
  Mn  Mn10  1  0.47057528  0.24366135  0.49271032  1
  Mn  Mn11  1  0.88401500  0.71910912  0.74216722  1
  Fe  Fe12  1  0.74277052  0.10727748  0.25885930  1
  Fe  Fe13  1  0.80020112  0.42368485  0.47850477  1
  Fe  Fe14  1  0.64515608  0.77372195  -0.00319635  1
  Fe  Fe15  1  0.81400123  0.40211674  0.01043002  1
  Ni  Ni16  1  0.94015284  0.96519105  0.50892722  1
  Ni  Ni17  1  0.11004549  0.33557511  0.25917027  1
  Ni  Ni18  1  0.65969706  0.07492351  0.73970815  1
  Ni  Ni19  1  0.50986746  0.50278160  0.24723286  1
