# generated using pymatgen
data_HfTaC2
_symmetry_space_group_name_H-M   'P 1'
_cell_length_a   9.10782207
_cell_length_b   9.11472827
_cell_length_c   4.55464723
_cell_angle_alpha   90.00000000
_cell_angle_beta   90.00000000
_cell_angle_gamma   90.01144278
_symmetry_Int_Tables_number   1
_chemical_formula_structural   HfTaC2
_chemical_formula_sum   'Hf8 Ta8 C16'
_cell_volume   378.10550485
_cell_formula_units_Z   8
loop_
 _symmetry_equiv_pos_site_id
 _symmetry_equiv_pos_as_xyz
  1  'x, y, z'
loop_
 _atom_site_type_symbol
 _atom_site_label
 _atom_site_symmetry_multiplicity
 _atom_site_fract_x
 _atom_site_fract_y
 _atom_site_fract_z
 _atom_site_occupancy
  Ta  Ta0  1  0.50019244  0.74928468  0.50000000  1
  Ta  Ta1  1  0.75000000  0.50000000  0.50000000  1
  Ta  Ta2  1  0.99844605  0.49981031  0.00000000  1
  Ta  Ta3  1  0.99980756  0.25071532  0.50000000  1
  Ta  Ta4  1  0.75077942  0.25037040  0.00000000  1
  Ta  Ta5  1  0.25000000  0.50000000  0.50000000  1
  Ta  Ta6  1  0.74922058  0.74962960  0.00000000  1
  Ta  Ta7  1  0.50155395  0.50018969  0.00000000  1
  Hf  Hf8  1  0.99923506  0.74880344  0.50000000  1
  Hf  Hf9  1  0.24923182  0.25122589  0.00000000  1
  Hf  Hf10  1  0.50010163  0.99915996  0.00000000  1
  Hf  Hf11  1  0.25000000  0.00000000  0.50000000  1
  Hf  Hf12  1  0.50076494  0.25119656  0.50000000  1
  Hf  Hf13  1  0.75000000  0.00000000  0.50000000  1
  Hf  Hf14  1  -0.00010163  0.00084004  0.00000000  1
  Hf  Hf15  1  0.25076818  0.74877411  0.00000000  1
  C  C16  1  0.99724694  0.25445312  0.00000000  1
  C  C17  1  0.99895034  0.00368626  0.50000000  1
  C  C18  1  0.24673787  0.25541407  0.50000000  1
  C  C19  1  0.25000000  0.00000000  0.00000000  1
  C  C20  1  0.99634336  0.74464481  0.00000000  1
  C  C21  1  0.99874121  0.49716370  0.50000000  1
  C  C22  1  0.25326213  0.74458593  0.50000000  1
  C  C23  1  0.25000000  0.50000000  0.00000000  1
  C  C24  1  0.50365664  0.25535519  0.00000000  1
  C  C25  1  0.50104966  0.99631374  0.50000000  1
  C  C26  1  0.75279960  0.25448190  0.50000000  1
  C  C27  1  0.75000000  0.00000000  0.00000000  1
  C  C28  1  0.50275306  0.74554688  0.00000000  1
  C  C29  1  0.50125879  0.50283630  0.50000000  1
  C  C30  1  0.74720040  0.74551810  0.50000000  1
  C  C31  1  0.75000000  0.50000000  0.00000000  1
