# generated using pymatgen
data_Hf13Mo3C16
_symmetry_space_group_name_H-M   'P 1'
_cell_length_a   9.20029821
_cell_length_b   9.17885329
_cell_length_c   4.57941635
_cell_angle_alpha   90.00000000
_cell_angle_beta   90.00000000
_cell_angle_gamma   90.00000000
_symmetry_Int_Tables_number   1
_chemical_formula_structural   Hf13Mo3C16
_chemical_formula_sum   'Hf13 Mo3 C16'
_cell_volume   386.72341054
_cell_formula_units_Z   1
loop_
 _symmetry_equiv_pos_site_id
 _symmetry_equiv_pos_as_xyz
  1  'x, y, z'
loop_
 _atom_site_type_symbol
 _atom_site_label
 _atom_site_symmetry_multiplicity
 _atom_site_fract_x
 _atom_site_fract_y
 _atom_site_fract_z
 _atom_site_occupancy
  Hf  Hf0  1  0.99828824  -0.00000000  -0.00000000  1
  Hf  Hf1  1  0.99928031  0.25128871  0.50000000  1
  Hf  Hf2  1  0.25000000  0.24995275  0.00000000  1
  Hf  Hf3  1  0.99928031  0.74871129  0.50000000  1
  Hf  Hf4  1  0.25000000  0.50000000  0.50000000  1
  Hf  Hf5  1  0.50171176  -0.00000000  -0.00000000  1
  Hf  Hf6  1  0.50071969  0.25128871  0.50000000  1
  Hf  Hf7  1  0.75000000  0.25355377  -0.00000000  1
  Hf  Hf8  1  0.50071969  0.74871129  0.50000000  1
  Hf  Hf9  1  0.75000000  0.50000000  0.50000000  1
  Hf  Hf10  1  0.75000000  0.74644623  -0.00000000  1
  Hf  Hf11  1  0.25000000  0.75004725  -0.00000000  1
  Hf  Hf12  1  0.25000000  -0.00000000  0.50000000  1
  Mo  Mo13  1  0.48313589  0.50000000  -0.00000000  1
  Mo  Mo14  1  0.01686411  0.50000000  -0.00000000  1
  Mo  Mo15  1  0.75000000  -0.00000000  0.50000000  1
  C  C16  1  0.99364248  -0.00000000  0.50000000  1
  C  C17  1  0.99849607  0.25253948  -0.00000000  1
  C  C18  1  0.25000000  -0.00000000  -0.00000000  1
  C  C19  1  0.25000000  0.25146018  0.50000000  1
  C  C20  1  0.00088316  0.50000000  0.50000000  1
  C  C21  1  0.99849607  0.74746052  -0.00000000  1
  C  C22  1  0.25000000  0.50000000  -0.00000000  1
  C  C23  1  0.25000000  0.74853982  0.50000000  1
  C  C24  1  0.50635752  -0.00000000  0.50000000  1
  C  C25  1  0.50150393  0.25253948  0.00000000  1
  C  C26  1  0.75000000  -0.00000000  -0.00000000  1
  C  C27  1  0.75000000  0.24976637  0.50000000  1
  C  C28  1  0.49911684  0.50000000  0.50000000  1
  C  C29  1  0.50150393  0.74746052  -0.00000000  1
  C  C30  1  0.75000000  0.50000000  -0.00000000  1
  C  C31  1  0.75000000  0.75023363  0.50000000  1
