# generated using pymatgen
data_Ta5Mo3C8
_symmetry_space_group_name_H-M   'P 1'
_cell_length_a   8.88783255
_cell_length_b   8.87431121
_cell_length_c   4.44465412
_cell_angle_alpha   90.00000000
_cell_angle_beta   90.00000000
_cell_angle_gamma   90.03451611
_symmetry_Int_Tables_number   1
_chemical_formula_structural   Ta5Mo3C8
_chemical_formula_sum   'Ta10 Mo6 C16'
_cell_volume   350.56488325
_cell_formula_units_Z   2
loop_
 _symmetry_equiv_pos_site_id
 _symmetry_equiv_pos_as_xyz
  1  'x, y, z'
loop_
 _atom_site_type_symbol
 _atom_site_label
 _atom_site_symmetry_multiplicity
 _atom_site_fract_x
 _atom_site_fract_y
 _atom_site_fract_z
 _atom_site_occupancy
  Ta  Ta0  1  0.00297631  0.99885053  0.00000000  1
  Ta  Ta1  1  0.74785315  0.99839968  0.50000000  1
  Ta  Ta2  1  0.74848018  0.50155958  0.50000000  1
  Ta  Ta3  1  0.00140490  0.50148893  0.00000000  1
  Ta  Ta4  1  0.25176876  0.75332764  0.00000000  1
  Ta  Ta5  1  0.00505226  0.24849887  0.50000000  1
  Ta  Ta6  1  0.74704852  0.24817953  0.00000000  1
  Ta  Ta7  1  0.25185865  0.50063057  0.50000000  1
  Ta  Ta8  1  0.74897015  0.75185438  0.00000000  1
  Ta  Ta9  1  0.49832970  0.50018202  0.00000000  1
  Mo  Mo10  1  0.99737138  0.74998242  0.50000000  1
  Mo  Mo11  1  0.50139858  0.75190322  0.50000000  1
  Mo  Mo12  1  0.25287161  0.24904675  0.00000000  1
  Mo  Mo13  1  0.49820074  0.00055338  0.00000000  1
  Mo  Mo14  1  0.25447212  0.00148066  0.50000000  1
  Mo  Mo15  1  0.49105938  0.24390402  0.50000000  1
  C  C16  1  -0.00048346  0.24951232  0.00000000  1
  C  C17  1  0.00081740  0.00060173  0.50000000  1
  C  C18  1  0.25012387  0.24939554  0.50000000  1
  C  C19  1  0.25193323  0.00116261  0.00000000  1
  C  C20  1  0.00052411  0.75022058  0.00000000  1
  C  C21  1  0.00060758  0.49795675  0.50000000  1
  C  C22  1  0.25064883  0.75155012  0.50000000  1
  C  C23  1  0.25053621  0.50237878  0.00000000  1
  C  C24  1  0.49891432  0.24919859  0.00000000  1
  C  C25  1  0.49921313  -0.00066694  0.50000000  1
  C  C26  1  0.74938603  0.24924424  0.50000000  1
  C  C27  1  0.75062740  0.99951585  0.00000000  1
  C  C28  1  0.49982172  0.75096848  0.00000000  1
  C  C29  1  0.49942647  0.49784375  0.50000000  1
  C  C30  1  0.74918651  0.75056935  0.50000000  1
  C  C31  1  0.74960021  0.50070611  0.00000000  1
