# generated using pymatgen
data_Ta7MoC8
_symmetry_space_group_name_H-M   'P 1'
_cell_length_a   8.94433662
_cell_length_b   8.94433662
_cell_length_c   4.45704682
_cell_angle_alpha   90.00000000
_cell_angle_beta   90.00000000
_cell_angle_gamma   89.92439001
_symmetry_Int_Tables_number   1
_chemical_formula_structural   Ta7MoC8
_chemical_formula_sum   'Ta14 Mo2 C16'
_cell_volume   356.56859440
_cell_formula_units_Z   2
loop_
 _symmetry_equiv_pos_site_id
 _symmetry_equiv_pos_as_xyz
  1  'x, y, z'
loop_
 _atom_site_type_symbol
 _atom_site_label
 _atom_site_symmetry_multiplicity
 _atom_site_fract_x
 _atom_site_fract_y
 _atom_site_fract_z
 _atom_site_occupancy
  Ta  Ta0  1  0.00251086  0.99909594  0.00000000  1
  Ta  Ta1  1  0.24967222  0.99735731  0.50000000  1
  Ta  Ta2  1  0.00309821  0.74690179  0.50000000  1
  Ta  Ta3  1  0.24690179  0.50309821  0.50000000  1
  Ta  Ta4  1  0.49718658  0.99718658  -0.00000000  1
  Ta  Ta5  1  0.75036246  -0.00036246  0.50000000  1
  Ta  Ta6  1  0.75281342  0.25281342  0.00000000  1
  Ta  Ta7  1  0.49909594  0.50251086  -0.00000000  1
  Ta  Ta8  1  0.75264269  0.50032778  0.50000000  1
  Ta  Ta9  1  0.75090406  0.74748914  0.00000000  1
  Ta  Ta10  1  0.49735731  0.74967222  0.50000000  1
  Ta  Ta11  1  0.24748914  0.25090406  -0.00000000  1
  Ta  Ta12  1  0.00032778  0.25264269  0.50000000  1
  Ta  Ta13  1  0.49963754  0.25036246  0.50000000  1
  Mo  Mo14  1  0.99481312  0.49481312  -0.00000000  1
  Mo  Mo15  1  0.25518688  0.75518688  0.00000000  1
  C  C16  1  0.00005319  0.24722683  0.00000000  1
  C  C17  1  0.00039904  0.99907649  0.50000000  1
  C  C18  1  0.24960096  0.25092351  0.50000000  1
  C  C19  1  0.24994681  0.00277317  0.00000000  1
  C  C20  1  0.00070083  0.74929917  0.00000000  1
  C  C21  1  0.00037262  0.50037262  0.50000000  1
  C  C22  1  0.24962738  0.74962738  0.50000000  1
  C  C23  1  0.24929917  0.50070083  -0.00000000  1
  C  C24  1  0.49986385  0.25013615  0.00000000  1
  C  C25  1  0.49967001  0.99967001  0.50000000  1
  C  C26  1  0.75032999  0.25032999  0.50000000  1
  C  C27  1  0.75013615  0.99986385  0.00000000  1
  C  C28  1  0.50277317  0.74994681  0.00000000  1
  C  C29  1  0.49907649  0.50039904  0.50000000  1
  C  C30  1  0.75092351  0.74960096  0.50000000  1
  C  C31  1  0.74722683  0.50005319  -0.00000000  1
