# generated using pymatgen
data_Hf13Zr3C16
_symmetry_space_group_name_H-M   'P 1'
_cell_length_a   9.31696378
_cell_length_b   9.31845296
_cell_length_c   4.65720003
_cell_angle_alpha   90.00000000
_cell_angle_beta   90.00000000
_cell_angle_gamma   90.00000000
_symmetry_Int_Tables_number   1
_chemical_formula_structural   Hf13Zr3C16
_chemical_formula_sum   'Hf13 Zr3 C16'
_cell_volume   404.33665688
_cell_formula_units_Z   1
loop_
 _symmetry_equiv_pos_site_id
 _symmetry_equiv_pos_as_xyz
  1  'x, y, z'
loop_
 _atom_site_type_symbol
 _atom_site_label
 _atom_site_symmetry_multiplicity
 _atom_site_fract_x
 _atom_site_fract_y
 _atom_site_fract_z
 _atom_site_occupancy
  Hf  Hf0  1  0.00052700  0.00000000  0.00000000  1
  Hf  Hf1  1  0.00031012  0.24963499  0.50000000  1
  Hf  Hf2  1  0.25000000  0.24950390  0.00000000  1
  Hf  Hf3  1  0.00031012  0.75036501  0.50000000  1
  Hf  Hf4  1  0.25000000  0.50000000  0.50000000  1
  Hf  Hf5  1  0.49947300  0.00000000  0.00000000  1
  Hf  Hf6  1  0.49968988  0.24963499  0.50000000  1
  Hf  Hf7  1  0.75000000  0.24990505  0.00000000  1
  Hf  Hf8  1  0.49968988  0.75036501  0.50000000  1
  Hf  Hf9  1  0.75000000  0.50000000  0.50000000  1
  Hf  Hf10  1  0.75000000  0.75009495  0.00000000  1
  Hf  Hf11  1  0.25000000  0.75049610  0.00000000  1
  Hf  Hf12  1  0.25000000  0.00000000  0.50000000  1
  Zr  Zr13  1  0.49986593  0.50000000  0.00000000  1
  Zr  Zr14  1  0.00013407  0.50000000  0.00000000  1
  Zr  Zr15  1  0.75000000  0.00000000  0.50000000  1
  C  C16  1  0.00155672  0.00000000  0.50000000  1
  C  C17  1  0.00011715  0.24840693  0.00000000  1
  C  C18  1  0.25000000  0.00000000  0.00000000  1
  C  C19  1  0.25000000  0.24993224  0.50000000  1
  C  C20  1  0.00017445  0.50000000  0.50000000  1
  C  C21  1  0.00011715  0.75159307  0.00000000  1
  C  C22  1  0.25000000  0.50000000  0.00000000  1
  C  C23  1  0.25000000  0.75006776  0.50000000  1
  C  C24  1  0.49844328  0.00000000  0.50000000  1
  C  C25  1  0.49988285  0.24840693  0.00000000  1
  C  C26  1  0.75000000  0.00000000  0.00000000  1
  C  C27  1  0.75000000  0.25132845  0.50000000  1
  C  C28  1  0.49982555  0.50000000  0.50000000  1
  C  C29  1  0.49988285  0.75159307  0.00000000  1
  C  C30  1  0.75000000  0.50000000  0.00000000  1
  C  C31  1  0.75000000  0.74867155  0.50000000  1
