# generated using pymatgen
data_ZrTaTiFeMoC5
_symmetry_space_group_name_H-M   'P 1'
_cell_length_a   6.99476006
_cell_length_b   6.94825497
_cell_length_c   4.42992077
_cell_angle_alpha   90.00000000
_cell_angle_beta   90.00000000
_cell_angle_gamma   90.17711971
_symmetry_Int_Tables_number   1
_chemical_formula_structural   ZrTaTiFeMoC5
_chemical_formula_sum   'Zr2 Ta2 Ti2 Fe2 Mo2 C10'
_cell_volume   215.29921780
_cell_formula_units_Z   2
loop_
 _symmetry_equiv_pos_site_id
 _symmetry_equiv_pos_as_xyz
  1  'x, y, z'
loop_
 _atom_site_type_symbol
 _atom_site_label
 _atom_site_symmetry_multiplicity
 _atom_site_fract_x
 _atom_site_fract_y
 _atom_site_fract_z
 _atom_site_occupancy
  C  C0  1  0.28180664  0.90215364  0.00000000  1
  C  C1  1  0.49605893  0.49370808  0.00000000  1
  C  C2  1  0.38994772  0.19261320  0.50000000  1
  C  C3  1  0.10167615  0.30058332  0.00000000  1
  C  C4  1  0.00249284  0.99493951  0.50000000  1
  C  C5  1  0.71557689  0.10565345  0.00000000  1
  C  C6  1  0.61045555  0.80977805  0.50000000  1
  C  C7  1  0.18602131  0.60333795  0.50000000  1
  C  C8  1  0.91388210  0.70993045  0.00000000  1
  C  C9  1  0.81054504  0.40165428  0.50000000  1
  Mo  Mo10  1  0.26968238  0.90832276  0.50000000  1
  Mo  Mo11  1  0.36983418  0.20376966  0.00000000  1
  Ti  Ti12  1  0.19663123  0.61427493  0.00000000  1
  Ti  Ti13  1  0.10235419  0.31221663  0.50000000  1
  Ta  Ta14  1  0.71939857  0.09736766  0.50000000  1
  Ta  Ta15  1  0.81587238  0.40505495  0.00000000  1
  Zr  Zr16  1  0.49527131  0.50057400  0.50000000  1
  Zr  Zr17  1  0.60666765  0.80549002  0.00000000  1
  Fe  Fe18  1  0.91018614  0.66786151  0.50000000  1
  Fe  Fe19  1  0.00563881  0.97071595  0.00000000  1
