# generated using pymatgen
data_ZrScTaTiMoC5
_symmetry_space_group_name_H-M   'P 1'
_cell_length_a   7.09766179
_cell_length_b   7.10918452
_cell_length_c   4.50360762
_cell_angle_alpha   90.00000000
_cell_angle_beta   90.00000000
_cell_angle_gamma   90.00482871
_symmetry_Int_Tables_number   1
_chemical_formula_structural   ZrScTaTiMoC5
_chemical_formula_sum   'Zr2 Sc2 Ta2 Ti2 Mo2 C10'
_cell_volume   227.24567742
_cell_formula_units_Z   2
loop_
 _symmetry_equiv_pos_site_id
 _symmetry_equiv_pos_as_xyz
  1  'x, y, z'
loop_
 _atom_site_type_symbol
 _atom_site_label
 _atom_site_symmetry_multiplicity
 _atom_site_fract_x
 _atom_site_fract_y
 _atom_site_fract_z
 _atom_site_occupancy
  C  C0  1  0.29577095  0.90096780  0.00000000  1
  C  C1  1  0.49483439  0.49144058  0.00000000  1
  C  C2  1  0.39424156  0.19314426  0.50000000  1
  C  C3  1  0.10542758  0.30572551  0.00000000  1
  C  C4  1  0.00354814  0.00948126  0.50000000  1
  C  C5  1  0.69642011  0.10552353  0.00000000  1
  C  C6  1  0.59444481  0.80971919  0.50000000  1
  C  C7  1  0.20074504  0.60032630  0.50000000  1
  C  C8  1  0.90756756  0.68691672  0.00000000  1
  C  C9  1  0.80715099  0.39071386  0.50000000  1
  Mo  Mo10  1  0.29000067  0.90642978  0.50000000  1
  Mo  Mo11  1  0.38706681  0.20496982  0.00000000  1
  Ti  Ti12  1  0.19797767  0.60367487  0.00000000  1
  Ti  Ti13  1  0.10441985  0.30471256  0.50000000  1
  Ta  Ta14  1  0.70879020  0.09637591  0.50000000  1
  Ta  Ta15  1  0.81139769  0.39697521  0.00000000  1
  Zr  Zr16  1  0.49823863  0.49579231  0.50000000  1
  Zr  Zr17  1  0.59758499  0.79962793  0.00000000  1
  Sc  Sc18  1  0.90324914  0.69849901  0.50000000  1
  Sc  Sc19  1  0.00112320  0.99898360  0.00000000  1
