# generated using pymatgen
data_ZrTaTiVMoC5
_symmetry_space_group_name_H-M   'P 1'
_cell_length_a   7.01261435
_cell_length_b   6.97779481
_cell_length_c   4.41965493
_cell_angle_alpha   90.00000000
_cell_angle_beta   90.00000000
_cell_angle_gamma   90.18285747
_symmetry_Int_Tables_number   1
_chemical_formula_structural   ZrTaTiVMoC5
_chemical_formula_sum   'Zr2 Ta2 Ti2 V2 Mo2 C10'
_cell_volume   216.26403468
_cell_formula_units_Z   2
loop_
 _symmetry_equiv_pos_site_id
 _symmetry_equiv_pos_as_xyz
  1  'x, y, z'
loop_
 _atom_site_type_symbol
 _atom_site_label
 _atom_site_symmetry_multiplicity
 _atom_site_fract_x
 _atom_site_fract_y
 _atom_site_fract_z
 _atom_site_occupancy
  C  C0  1  0.28397000  0.89717994  0.00000000  1
  C  C1  1  0.49647790  0.49265106  0.00000000  1
  C  C2  1  0.39403752  0.19068969  0.50000000  1
  C  C3  1  0.10093388  0.29728515  0.00000000  1
  C  C4  1  0.00188872  0.99984633  0.50000000  1
  C  C5  1  0.70680662  0.10587152  0.00000000  1
  C  C6  1  0.60826809  0.80838104  0.50000000  1
  C  C7  1  0.18593194  0.59903068  0.50000000  1
  C  C8  1  0.91142067  0.70604769  0.00000000  1
  C  C9  1  0.81095132  0.40343883  0.50000000  1
  Mo  Mo10  1  0.28094609  0.90235480  0.50000000  1
  Mo  Mo11  1  0.37680521  0.19541043  0.00000000  1
  Ti  Ti12  1  0.19646883  0.60480933  0.00000000  1
  Ti  Ti13  1  0.10155899  0.30112950  0.50000000  1
  Ta  Ta14  1  0.71501388  0.09702672  0.50000000  1
  Ta  Ta15  1  0.81351142  0.40156009  0.00000000  1
  Zr  Zr16  1  0.49516251  0.49774463  0.50000000  1
  Zr  Zr17  1  0.59870505  0.80414497  0.00000000  1
  V  V18  1  0.91251196  0.70320769  0.50000000  1
  V  V19  1  0.00862939  0.99218989  0.00000000  1
