# generated using pymatgen
data_ZrTaTiMnMoC5
_symmetry_space_group_name_H-M   'P 1'
_cell_length_a   6.97984947
_cell_length_b   6.95431799
_cell_length_c   4.41657330
_cell_angle_alpha   90.00000000
_cell_angle_beta   90.00000000
_cell_angle_gamma   90.28227071
_symmetry_Int_Tables_number   1
_chemical_formula_structural   ZrTaTiMnMoC5
_chemical_formula_sum   'Zr2 Ta2 Ti2 Mn2 Mo2 C10'
_cell_volume   214.37827607
_cell_formula_units_Z   2
loop_
 _symmetry_equiv_pos_site_id
 _symmetry_equiv_pos_as_xyz
  1  'x, y, z'
loop_
 _atom_site_type_symbol
 _atom_site_label
 _atom_site_symmetry_multiplicity
 _atom_site_fract_x
 _atom_site_fract_y
 _atom_site_fract_z
 _atom_site_occupancy
  C  C0  1  0.28285816  0.90001609  0.00000000  1
  C  C1  1  0.49748264  0.49367383  0.00000000  1
  C  C2  1  0.39041115  0.19028803  0.50000000  1
  C  C3  1  0.10133774  0.30050494  0.00000000  1
  C  C4  1  0.00304678  0.99391238  0.50000000  1
  C  C5  1  0.71006053  0.10676216  0.00000000  1
  C  C6  1  0.61097269  0.80760672  0.50000000  1
  C  C7  1  0.18394364  0.60199160  0.50000000  1
  C  C8  1  0.91575127  0.71519431  0.00000000  1
  C  C9  1  0.81009645  0.40147571  0.50000000  1
  Mo  Mo10  1  0.27301196  0.90370971  0.50000000  1
  Mo  Mo11  1  0.37153326  0.19609620  0.00000000  1
  Ti  Ti12  1  0.19269087  0.61130050  0.00000000  1
  Ti  Ti13  1  0.10105889  0.30538198  0.50000000  1
  Ta  Ta14  1  0.71799168  0.09840214  0.50000000  1
  Ta  Ta15  1  0.81318864  0.40030280  0.00000000  1
  Zr  Zr16  1  0.49417899  0.49931371  0.50000000  1
  Zr  Zr17  1  0.60842139  0.80410467  0.00000000  1
  Mn  Mn18  1  0.90895122  0.67088042  0.50000000  1
  Mn  Mn19  1  0.01301207  0.99908209  0.00000000  1
