# generated using pymatgen
data_ZrTaTiFeMoC5
_symmetry_space_group_name_H-M   'P 1'
_cell_length_a   6.99527186
_cell_length_b   6.94875426
_cell_length_c   4.43065265
_cell_angle_alpha   90.00000000
_cell_angle_beta   90.00000000
_cell_angle_gamma   90.12514992
_symmetry_Int_Tables_number   1
_chemical_formula_structural   ZrTaTiFeMoC5
_chemical_formula_sum   'Zr2 Ta2 Ti2 Fe2 Mo2 C10'
_cell_volume   215.36653377
_cell_formula_units_Z   2
loop_
 _symmetry_equiv_pos_site_id
 _symmetry_equiv_pos_as_xyz
  1  'x, y, z'
loop_
 _atom_site_type_symbol
 _atom_site_label
 _atom_site_symmetry_multiplicity
 _atom_site_fract_x
 _atom_site_fract_y
 _atom_site_fract_z
 _atom_site_occupancy
  C  C0  1  0.28152865  0.90221871  0.00000000  1
  C  C1  1  0.49591519  0.49379271  0.00000000  1
  C  C2  1  0.39009468  0.19268630  0.50000000  1
  C  C3  1  0.10184948  0.30074345  0.00000000  1
  C  C4  1  0.00265567  0.99519035  0.50000000  1
  C  C5  1  0.71575579  0.10551842  0.00000000  1
  C  C6  1  0.61071889  0.80968581  0.50000000  1
  C  C7  1  0.18593888  0.60345212  0.50000000  1
  C  C8  1  0.91371565  0.70968542  0.00000000  1
  C  C9  1  0.81059346  0.40159551  0.50000000  1
  Mo  Mo10  1  0.26970245  0.90863392  0.50000000  1
  Mo  Mo11  1  0.37011510  0.20413981  0.00000000  1
  Ti  Ti12  1  0.19669593  0.61418160  0.00000000  1
  Ti  Ti13  1  0.10244960  0.31245817  0.50000000  1
  Ta  Ta14  1  0.71958778  0.09732444  0.50000000  1
  Ta  Ta15  1  0.81598525  0.40497726  0.00000000  1
  Zr  Zr16  1  0.49529988  0.50061491  0.50000000  1
  Zr  Zr17  1  0.60633268  0.80550898  0.00000000  1
  Fe  Fe18  1  0.90987973  0.66774742  0.50000000  1
  Fe  Fe19  1  0.00518523  0.96984471  0.00000000  1
