# generated using pymatgen
data_Zr3MnC4
_symmetry_space_group_name_H-M   'P 1'
_cell_length_a   9.15098101
_cell_length_b   9.22617944
_cell_length_c   4.59898533
_cell_angle_alpha   90.00000000
_cell_angle_beta   90.00000000
_cell_angle_gamma   90.19571463
_symmetry_Int_Tables_number   1
_chemical_formula_structural   Zr3MnC4
_chemical_formula_sum   'Zr12 Mn4 C16'
_cell_volume   388.28359450
_cell_formula_units_Z   4
loop_
 _symmetry_equiv_pos_site_id
 _symmetry_equiv_pos_as_xyz
  1  'x, y, z'
loop_
 _atom_site_type_symbol
 _atom_site_label
 _atom_site_symmetry_multiplicity
 _atom_site_fract_x
 _atom_site_fract_y
 _atom_site_fract_z
 _atom_site_occupancy
  Mn  Mn0  1  0.97826238  0.00008621  0.00000000  1
  Mn  Mn1  1  0.51700495  0.21889285  0.50000000  1
  Mn  Mn2  1  0.77579138  0.99452305  0.50000000  1
  Mn  Mn3  1  0.73310078  0.53940072  0.50000000  1
  Zr  Zr4  1  0.99030747  0.24653658  0.50000000  1
  Zr  Zr5  1  0.23917527  0.00438696  0.50000000  1
  Zr  Zr6  1  0.25053566  0.24700611  0.00000000  1
  Zr  Zr7  1  0.99372512  0.49910736  0.00000000  1
  Zr  Zr8  1  0.00036256  0.74978916  0.50000000  1
  Zr  Zr9  1  0.25480994  0.49696535  0.50000000  1
  Zr  Zr10  1  0.25016003  0.75442932  0.00000000  1
  Zr  Zr11  1  0.50438560  0.00498258  0.00000000  1
  Zr  Zr12  1  0.74571611  0.24639227  0.00000000  1
  Zr  Zr13  1  0.50733830  0.49815640  0.00000000  1
  Zr  Zr14  1  0.50282242  0.76152461  0.50000000  1
  Zr  Zr15  1  0.75397385  0.75499443  0.00000000  1
  C  C16  1  0.98109269  0.99825443  0.50000000  1
  C  C17  1  0.98934333  0.24525852  0.00000000  1
  C  C18  1  0.25305414  0.00272822  0.00000000  1
  C  C19  1  0.23940854  0.24663960  0.50000000  1
  C  C20  1  0.99487055  0.50012280  0.50000000  1
  C  C21  1  0.99865692  0.75688972  0.00000000  1
  C  C22  1  0.25580116  0.49660072  0.00000000  1
  C  C23  1  0.24893923  0.75162924  0.50000000  1
  C  C24  1  0.50737851  0.01488955  0.50000000  1
  C  C25  1  0.50250403  0.25056839  0.00000000  1
  C  C26  1  0.77077849  0.00002364  0.00000000  1
  C  C27  1  0.72785060  0.20819052  0.50000000  1
  C  C28  1  0.52640703  0.50719894  0.50000000  1
  C  C29  1  0.50413816  0.75701742  0.00000000  1
  C  C30  1  0.74900832  0.50042193  0.00000000  1
  C  C31  1  0.75329651  0.74639236  0.50000000  1
