# generated using pymatgen
data_Hf5Mn3C8
_symmetry_space_group_name_H-M   'P 1'
_cell_length_a   8.84508573
_cell_length_b   9.00326162
_cell_length_c   4.49504614
_cell_angle_alpha   90.00000000
_cell_angle_beta   90.00000000
_cell_angle_gamma   90.66784972
_symmetry_Int_Tables_number   1
_chemical_formula_structural   Hf5Mn3C8
_chemical_formula_sum   'Hf10 Mn6 C16'
_cell_volume   357.93697815
_cell_formula_units_Z   2
loop_
 _symmetry_equiv_pos_site_id
 _symmetry_equiv_pos_as_xyz
  1  'x, y, z'
loop_
 _atom_site_type_symbol
 _atom_site_label
 _atom_site_symmetry_multiplicity
 _atom_site_fract_x
 _atom_site_fract_y
 _atom_site_fract_z
 _atom_site_occupancy
  Hf  Hf0  1  0.99653189  0.00003934  0.00000000  1
  Hf  Hf1  1  0.99927149  0.25568786  0.50000000  1
  Hf  Hf2  1  0.25230512  0.99337042  0.50000000  1
  Hf  Hf3  1  0.26273058  0.25679603  0.00000000  1
  Hf  Hf4  1  0.99989522  0.50203313  0.00000000  1
  Hf  Hf5  1  0.23951659  0.74455781  0.00000000  1
  Hf  Hf6  1  0.50584208  0.24883765  0.50000000  1
  Hf  Hf7  1  0.74705313  0.99708044  0.50000000  1
  Hf  Hf8  1  0.50061821  0.74719412  0.50000000  1
  Hf  Hf9  1  0.74260021  0.50329845  0.50000000  1
  Mn  Mn10  1  0.97753945  0.74360209  0.50000000  1
  Mn  Mn11  1  0.27572436  0.50308667  0.50000000  1
  Mn  Mn12  1  0.50325301  0.95771742  0.00000000  1
  Mn  Mn13  1  0.73774398  0.22653573  0.00000000  1
  Mn  Mn14  1  0.49305162  0.53388315  0.00000000  1
  Mn  Mn15  1  0.77272927  0.74106292  0.00000000  1
  C  C16  1  0.99575972  0.99820752  0.50000000  1
  C  C17  1  0.00153992  0.25196907  0.00000000  1
  C  C18  1  0.25321715  0.99459678  0.00000000  1
  C  C19  1  0.25868609  0.25561991  0.50000000  1
  C  C20  1  0.99774838  0.51081183  0.50000000  1
  C  C21  1  0.98514904  0.74875528  0.00000000  1
  C  C22  1  0.26175572  0.50221981  0.00000000  1
  C  C23  1  0.24569841  0.73594387  0.50000000  1
  C  C24  1  0.50082573  0.99487604  0.50000000  1
  C  C25  1  0.52261879  0.26176552  0.00000000  1
  C  C26  1  0.72819332  0.00993475  0.00000000  1
  C  C27  1  0.74963129  0.24966664  0.50000000  1
  C  C28  1  0.49048875  0.50135097  0.50000000  1
  C  C29  1  0.50514736  0.75000330  0.00000000  1
  C  C30  1  0.73687582  0.52948196  0.00000000  1
  C  C31  1  0.76025832  0.75001352  0.50000000  1
