# generated using pymatgen
data_HfB8W3
_symmetry_space_group_name_H-M   'P 1'
_cell_length_a   6.18447893
_cell_length_b   6.18447894
_cell_length_c   6.92180321
_cell_angle_alpha   90.00000000
_cell_angle_beta   90.00000000
_cell_angle_gamma   120.00000001
_symmetry_Int_Tables_number   1
_chemical_formula_structural   HfB8W3
_chemical_formula_sum   'Hf2 B16 W6'
_cell_volume   229.27468675
_cell_formula_units_Z   2
loop_
 _symmetry_equiv_pos_site_id
 _symmetry_equiv_pos_as_xyz
  1  'x, y, z'
loop_
 _atom_site_type_symbol
 _atom_site_label
 _atom_site_symmetry_multiplicity
 _atom_site_fract_x
 _atom_site_fract_y
 _atom_site_fract_z
 _atom_site_occupancy
  Hf  Hf0  1  0.00000000  0.00000000  0.00000000  1
  Hf  Hf1  1  0.00000000  0.00000000  0.50000000  1
  B  B2  1  0.16878889  0.33757777  0.25000000  1
  B  B3  1  0.33757777  0.16878889  0.25000000  1
  B  B4  1  0.16878889  0.33757777  0.75000000  1
  B  B5  1  0.33757777  0.16878889  0.75000000  1
  B  B6  1  0.16878889  0.83121111  0.25000000  1
  B  B7  1  0.33333333  0.66666667  0.25000000  1
  B  B8  1  0.16878889  0.83121111  0.75000000  1
  B  B9  1  0.33333333  0.66666667  0.75000000  1
  B  B10  1  0.66666667  0.33333333  0.25000000  1
  B  B11  1  0.83121111  0.16878889  0.25000000  1
  B  B12  1  0.66666667  0.33333333  0.75000000  1
  B  B13  1  0.83121111  0.16878889  0.75000000  1
  B  B14  1  0.66242223  0.83121111  0.25000000  1
  B  B15  1  0.83121111  0.66242223  0.25000000  1
  B  B16  1  0.66242223  0.83121111  0.75000000  1
  B  B17  1  0.83121111  0.66242223  0.75000000  1
  W  W18  1  0.00000000  0.50000000  0.00000000  1
  W  W19  1  0.00000000  0.50000000  0.50000000  1
  W  W20  1  0.50000000  0.00000000  0.00000000  1
  W  W21  1  0.50000000  0.00000000  0.50000000  1
  W  W22  1  0.50000000  0.50000000  0.00000000  1
  W  W23  1  0.50000000  0.50000000  0.50000000  1
