# generated using pymatgen
data_Fe2NiW
_symmetry_space_group_name_H-M   'P 1'
_cell_length_a   5.72929392
_cell_length_b   5.85039704
_cell_length_c   7.31445614
_cell_angle_alpha   90.21628690
_cell_angle_beta   89.38339134
_cell_angle_gamma   90.02542732
_symmetry_Int_Tables_number   1
_chemical_formula_structural   Fe2NiW
_chemical_formula_sum   'Fe10 Ni5 W5'
_cell_volume   245.15468871
_cell_formula_units_Z   5
loop_
 _symmetry_equiv_pos_site_id
 _symmetry_equiv_pos_as_xyz
  1  'x, y, z'
loop_
 _atom_site_type_symbol
 _atom_site_label
 _atom_site_symmetry_multiplicity
 _atom_site_fract_x
 _atom_site_fract_y
 _atom_site_fract_z
 _atom_site_occupancy
  Ni  Ni0  1  0.98576174  0.00735692  0.49856672  1
  Ni  Ni1  1  0.59866061  0.79096492  0.00263798  1
  Ni  Ni2  1  0.79029419  0.41111967  0.00078889  1
  Ni  Ni3  1  0.89595988  0.70473786  0.24645711  1
  Ni  Ni4  1  0.61095125  0.78890563  0.49873632  1
  Fe  Fe5  1  0.99808293  0.98614382  0.00087573  1
  Fe  Fe6  1  0.29904315  0.89363873  0.76229053  1
  Fe  Fe7  1  0.51019435  0.50528466  0.75159876  1
  Fe  Fe8  1  0.20422829  0.61190498  0.00257569  1
  Fe  Fe9  1  0.30419407  0.88634950  0.23626719  1
  Fe  Fe10  1  0.40844004  0.20188292  0.01474247  1
  Fe  Fe11  1  0.50618098  0.50217628  0.25569881  1
  Fe  Fe12  1  0.69670389  0.08746396  0.24027042  1
  Fe  Fe13  1  0.79609448  0.40926068  0.49576100  1
  Fe  Fe14  1  0.89632759  0.69785330  0.75446952  1
  W  W15  1  0.11520539  0.30467219  0.76639460  1
  W  W16  1  0.08630431  0.30143015  0.23309317  1
  W  W17  1  0.20204409  0.63259291  0.49718243  1
  W  W18  1  0.40367373  0.18138741  0.48239210  1
  W  W19  1  0.69165506  0.09487351  0.75920056  1
