# generated using pymatgen
data_Fe3Ni12W5
_symmetry_space_group_name_H-M   'P 1'
_cell_length_a   5.77073012
_cell_length_b   5.76266941
_cell_length_c   7.28320454
_cell_angle_alpha   89.80688104
_cell_angle_beta   90.06985045
_cell_angle_gamma   89.83644480
_symmetry_Int_Tables_number   1
_chemical_formula_structural   Fe3Ni12W5
_chemical_formula_sum   'Fe3 Ni12 W5'
_cell_volume   242.19903720
_cell_formula_units_Z   1
loop_
 _symmetry_equiv_pos_site_id
 _symmetry_equiv_pos_as_xyz
  1  'x, y, z'
loop_
 _atom_site_type_symbol
 _atom_site_label
 _atom_site_symmetry_multiplicity
 _atom_site_fract_x
 _atom_site_fract_y
 _atom_site_fract_z
 _atom_site_occupancy
  Ni  Ni0  1  0.98875000  0.00540044  0.50239268  1
  Ni  Ni1  1  0.19796778  0.60836503  0.00054483  1
  Ni  Ni2  1  0.30331526  0.89194142  0.23998135  1
  Ni  Ni3  1  0.40306057  0.20500846  0.01130352  1
  Ni  Ni4  1  0.50294676  0.50271954  0.25007934  1
  Ni  Ni5  1  0.70185180  0.09245208  0.24439393  1
  Ni  Ni6  1  0.80238435  0.40198380  0.49846340  1
  Ni  Ni7  1  0.89778706  0.69492252  0.75366931  1
  Ni  Ni8  1  0.59752164  0.79498033  0.00112233  1
  Ni  Ni9  1  0.79143620  0.40938284  0.00040428  1
  Ni  Ni10  1  0.90434826  0.70352292  0.24729869  1
  Ni  Ni11  1  0.61213333  0.78587970  0.49748757  1
  Fe  Fe12  1  0.00512350  0.99578914  0.99419408  1
  Fe  Fe13  1  0.29868015  0.90443745  0.75159138  1
  Fe  Fe14  1  0.49372741  0.50120722  0.75539551  1
  W  W15  1  0.11187845  0.30092363  0.76681465  1
  W  W16  1  0.08153416  0.29424300  0.23795254  1
  W  W17  1  0.20935704  0.63040365  0.50238327  1
  W  W18  1  0.41020031  0.17950225  0.48318023  1
  W  W19  1  0.68599597  0.09693453  0.76134713  1
