# generated using pymatgen
data_TaCrC2
_symmetry_space_group_name_H-M   'P 1'
_cell_length_a   8.66675477
_cell_length_b   8.59637611
_cell_length_c   4.33900904
_cell_angle_alpha   90.00000000
_cell_angle_beta   90.00000000
_cell_angle_gamma   90.20987640
_symmetry_Int_Tables_number   1
_chemical_formula_structural   TaCrC2
_chemical_formula_sum   'Ta8 Cr8 C16'
_cell_volume   323.26564920
_cell_formula_units_Z   8
loop_
 _symmetry_equiv_pos_site_id
 _symmetry_equiv_pos_as_xyz
  1  'x, y, z'
loop_
 _atom_site_type_symbol
 _atom_site_label
 _atom_site_symmetry_multiplicity
 _atom_site_fract_x
 _atom_site_fract_y
 _atom_site_fract_z
 _atom_site_occupancy
  Ta  Ta0  1  0.49107739  0.76710000  0.50000000  1
  Ta  Ta1  1  0.75000000  0.50000000  0.50000000  1
  Ta  Ta2  1  0.00800667  0.50157209  0.00000000  1
  Ta  Ta3  1  0.00892261  0.23290000  0.50000000  1
  Ta  Ta4  1  0.74258462  0.24417684  0.00000000  1
  Ta  Ta5  1  0.25000000  0.50000000  0.50000000  1
  Ta  Ta6  1  0.75741538  0.75582316  0.00000000  1
  Ta  Ta7  1  0.49199333  0.49842791  0.00000000  1
  Cr  Cr8  1  0.01763077  0.76509471  0.50000000  1
  Cr  Cr9  1  0.26198274  0.21911525  0.00000000  1
  Cr  Cr10  1  0.51791054  0.00543041  0.00000000  1
  Cr  Cr11  1  0.25000000  0.00000000  0.50000000  1
  Cr  Cr12  1  0.48236923  0.23490529  0.50000000  1
  Cr  Cr13  1  0.75000000  0.00000000  0.50000000  1
  Cr  Cr14  1  0.98208946  0.99456959  0.00000000  1
  Cr  Cr15  1  0.23801726  0.78088475  0.00000000  1
  C  C16  1  0.00415566  0.24003613  0.00000000  1
  C  C17  1  0.00290851  0.98805395  0.50000000  1
  C  C18  1  0.25699424  0.23856111  0.50000000  1
  C  C19  1  0.25000000  0.00000000  0.00000000  1
  C  C20  1  0.00793482  0.76065041  0.00000000  1
  C  C21  1  0.00133091  0.50056323  0.50000000  1
  C  C22  1  0.24300576  0.76143889  0.50000000  1
  C  C23  1  0.25000000  0.50000000  0.00000000  1
  C  C24  1  0.49206518  0.23934959  0.00000000  1
  C  C25  1  0.49709149  0.01194605  0.50000000  1
  C  C26  1  0.74788216  0.24227811  0.50000000  1
  C  C27  1  0.75000000  0.00000000  0.00000000  1
  C  C28  1  0.49584434  0.75996387  0.00000000  1
  C  C29  1  0.49866909  0.49943677  0.50000000  1
  C  C30  1  0.75211784  0.75772189  0.50000000  1
  C  C31  1  0.75000000  0.50000000  0.00000000  1
