# generated using pymatgen
data_Zr7NbC8
_symmetry_space_group_name_H-M   'P 1'
_cell_length_a   9.36423144
_cell_length_b   9.34786250
_cell_length_c   4.68248648
_cell_angle_alpha   90.00000000
_cell_angle_beta   90.00000000
_cell_angle_gamma   90.00000000
_symmetry_Int_Tables_number   1
_chemical_formula_structural   Zr7NbC8
_chemical_formula_sum   'Zr14 Nb2 C16'
_cell_volume   409.88401965
_cell_formula_units_Z   2
loop_
 _symmetry_equiv_pos_site_id
 _symmetry_equiv_pos_as_xyz
  1  'x, y, z'
loop_
 _atom_site_type_symbol
 _atom_site_label
 _atom_site_symmetry_multiplicity
 _atom_site_fract_x
 _atom_site_fract_y
 _atom_site_fract_z
 _atom_site_occupancy
  Zr  Zr0  1  0.00055532  0.99759634  0.00000000  1
  Zr  Zr1  1  0.00041381  0.25000000  0.50000000  1
  Zr  Zr2  1  0.24944468  0.99759634  0.50000000  1
  Zr  Zr3  1  0.24958619  0.25000000  -0.00000000  1
  Zr  Zr4  1  0.00055532  0.50240366  0.00000000  1
  Zr  Zr5  1  0.24944468  0.50240366  0.50000000  1
  Zr  Zr6  1  0.49948485  0.99924909  -0.00000000  1
  Zr  Zr7  1  0.49971301  0.25000000  0.50000000  1
  Zr  Zr8  1  0.75051515  0.99924909  0.50000000  1
  Zr  Zr9  1  0.75028699  0.25000000  -0.00000000  1
  Zr  Zr10  1  0.49948485  0.50075091  -0.00000000  1
  Zr  Zr11  1  0.49869946  0.75000000  0.50000000  1
  Zr  Zr12  1  0.75051515  0.50075091  0.50000000  1
  Zr  Zr13  1  0.75130054  0.75000000  -0.00000000  1
  Nb  Nb14  1  0.00012261  0.75000000  0.50000000  1
  Nb  Nb15  1  0.24987739  0.75000000  -0.00000000  1
  C  C16  1  0.00073259  0.99310638  0.50000000  1
  C  C17  1  0.00070284  0.25000000  -0.00000000  1
  C  C18  1  0.24926741  0.99310638  -0.00000000  1
  C  C19  1  0.24929716  0.25000000  0.50000000  1
  C  C20  1  0.00073259  0.50689362  0.50000000  1
  C  C21  1  0.00435452  0.75000000  -0.00000000  1
  C  C22  1  0.24926741  0.50689362  -0.00000000  1
  C  C23  1  0.24564548  0.75000000  0.50000000  1
  C  C24  1  0.49931812  0.99872311  0.50000000  1
  C  C25  1  0.49938586  0.25000000  -0.00000000  1
  C  C26  1  0.75068188  0.99872311  0.00000000  1
  C  C27  1  0.75061414  0.25000000  0.50000000  1
  C  C28  1  0.49931812  0.50127689  0.50000000  1
  C  C29  1  0.49413615  0.75000000  -0.00000000  1
  C  C30  1  0.75068188  0.50127689  0.00000000  1
  C  C31  1  0.75586385  0.75000000  0.50000000  1
