# generated using pymatgen
data_Y5Zr11C16
_symmetry_space_group_name_H-M   'P 1'
_cell_length_a   9.63151616
_cell_length_b   9.63381235
_cell_length_c   4.80931482
_cell_angle_alpha   90.00000000
_cell_angle_beta   90.00000000
_cell_angle_gamma   89.98657740
_symmetry_Int_Tables_number   1
_chemical_formula_structural   Y5Zr11C16
_chemical_formula_sum   'Y5 Zr11 C16'
_cell_volume   446.24774631
_cell_formula_units_Z   1
loop_
 _symmetry_equiv_pos_site_id
 _symmetry_equiv_pos_as_xyz
  1  'x, y, z'
loop_
 _atom_site_type_symbol
 _atom_site_label
 _atom_site_symmetry_multiplicity
 _atom_site_fract_x
 _atom_site_fract_y
 _atom_site_fract_z
 _atom_site_occupancy
  Zr  Zr0  1  0.99665909  0.25159415  0.50000000  1
  Zr  Zr1  1  0.74786580  0.74803588  0.00000000  1
  Zr  Zr2  1  0.99617451  0.49676505  0.00000000  1
  Zr  Zr3  1  0.25046100  0.49547447  0.50000000  1
  Zr  Zr4  1  0.50277569  0.25087643  0.50000000  1
  Zr  Zr5  1  0.74698412  0.00297759  0.50000000  1
  Zr  Zr6  1  0.50252444  0.49677821  0.00000000  1
  Zr  Zr7  1  0.74844213  0.49682188  0.50000000  1
  Zr  Zr8  1  0.25352701  0.00391975  0.50000000  1
  Zr  Zr9  1  0.74878814  0.25130785  0.00000000  1
  Zr  Zr10  1  0.50303866  0.00415243  0.00000000  1
  Y  Y11  1  0.50050087  0.74960544  0.50000000  1
  Y  Y12  1  0.99816265  0.00093671  0.00000000  1
  Y  Y13  1  0.99818262  0.74882353  0.50000000  1
  Y  Y14  1  0.25038211  0.25030626  0.00000000  1
  Y  Y15  1  0.25129953  0.74853416  0.00000000  1
  C  C16  1  0.00207563  0.01221047  0.50000000  1
  C  C17  1  0.98955886  0.25782990  0.00000000  1
  C  C18  1  0.26181411  0.99915981  0.00000000  1
  C  C19  1  0.25032980  0.25158921  0.50000000  1
  C  C20  1  -0.00063075  0.49190873  0.50000000  1
  C  C21  1  0.98726842  0.73682213  0.00000000  1
  C  C22  1  0.25176207  0.49951085  0.00000000  1
  C  C23  1  0.24886263  0.75376690  0.50000000  1
  C  C24  1  0.50239731  0.00930543  0.50000000  1
  C  C25  1  0.50838091  0.25066412  0.00000000  1
  C  C26  1  0.74319271  0.00061946  0.00000000  1
  C  C27  1  0.74921714  0.25134316  0.50000000  1
  C  C28  1  0.50078701  0.49176498  0.50000000  1
  C  C29  1  0.51109406  0.74728179  0.00000000  1
  C  C30  1  0.74851419  0.49807950  0.00000000  1
  C  C31  1  0.74960749  0.75123378  0.50000000  1
