# generated using pymatgen
data_ZrTaC2
_symmetry_space_group_name_H-M   'P 1'
_cell_length_a   9.16524562
_cell_length_b   9.16818998
_cell_length_c   4.58420451
_cell_angle_alpha   90.00000000
_cell_angle_beta   90.00000000
_cell_angle_gamma   90.00000000
_symmetry_Int_Tables_number   1
_chemical_formula_structural   ZrTaC2
_chemical_formula_sum   'Zr8 Ta8 C16'
_cell_volume   385.20480537
_cell_formula_units_Z   8
loop_
 _symmetry_equiv_pos_site_id
 _symmetry_equiv_pos_as_xyz
  1  'x, y, z'
loop_
 _atom_site_type_symbol
 _atom_site_label
 _atom_site_symmetry_multiplicity
 _atom_site_fract_x
 _atom_site_fract_y
 _atom_site_fract_z
 _atom_site_occupancy
  Zr  Zr0  1  0.75000000  0.75014095  0.00000000  1
  Zr  Zr1  1  0.99946164  0.50034445  0.00000000  1
  Zr  Zr2  1  0.25000000  0.50114325  0.50000000  1
  Zr  Zr3  1  0.50044311  0.24978183  0.50000000  1
  Zr  Zr4  1  0.75000000  0.00017077  0.50000000  1
  Zr  Zr5  1  0.50053836  0.50034445  0.00000000  1
  Zr  Zr6  1  0.99955689  0.24978183  0.50000000  1
  Zr  Zr7  1  0.25000000  0.99911988  0.50000000  1
  Ta  Ta8  1  0.75000000  0.24968080  0.00000000  1
  Ta  Ta9  1  0.25000000  0.75002675  0.00000000  1
  Ta  Ta10  1  0.99966848  0.75004262  0.50000000  1
  Ta  Ta11  1  0.25000000  0.24944442  0.00000000  1
  Ta  Ta12  1  0.00086428  0.99978799  0.00000000  1
  Ta  Ta13  1  0.49913572  0.99978799  0.00000000  1
  Ta  Ta14  1  0.75000000  0.50027806  0.50000000  1
  Ta  Ta15  1  0.50033152  0.75004262  0.50000000  1
  C  C16  1  0.00049684  0.99509606  0.50000000  1
  C  C17  1  0.99938638  0.24506943  0.00000000  1
  C  C18  1  0.25000000  0.99845125  0.00000000  1
  C  C19  1  0.25000000  0.24882829  0.50000000  1
  C  C20  1  0.99499509  0.50525952  0.50000000  1
  C  C21  1  0.00396494  0.75429658  0.00000000  1
  C  C22  1  0.25000000  0.50179698  0.00000000  1
  C  C23  1  0.25000000  0.75115386  0.50000000  1
  C  C24  1  0.49950316  0.99509606  0.50000000  1
  C  C25  1  0.50061362  0.24506943  0.00000000  1
  C  C26  1  0.75000000  0.00400421  0.00000000  1
  C  C27  1  0.75000000  0.25367273  0.50000000  1
  C  C28  1  0.50500491  0.50525952  0.50000000  1
  C  C29  1  0.49603506  0.75429658  0.00000000  1
  C  C30  1  0.75000000  0.49636549  0.00000000  1
  C  C31  1  0.75000000  0.74636536  0.50000000  1
