# generated using pymatgen
data_Zr5Ta3C8
_symmetry_space_group_name_H-M   'P 1'
_cell_length_a   9.23509023
_cell_length_b   9.23647768
_cell_length_c   4.61098627
_cell_angle_alpha   90.00000000
_cell_angle_beta   90.00000000
_cell_angle_gamma   90.00000000
_symmetry_Int_Tables_number   1
_chemical_formula_structural   Zr5Ta3C8
_chemical_formula_sum   'Zr10 Ta6 C16'
_cell_volume   393.31576759
_cell_formula_units_Z   2
loop_
 _symmetry_equiv_pos_site_id
 _symmetry_equiv_pos_as_xyz
  1  'x, y, z'
loop_
 _atom_site_type_symbol
 _atom_site_label
 _atom_site_symmetry_multiplicity
 _atom_site_fract_x
 _atom_site_fract_y
 _atom_site_fract_z
 _atom_site_occupancy
  Zr  Zr0  1  0.75116911  0.75058980  -0.00000000  1
  Zr  Zr1  1  0.00050075  0.50000000  0.00000000  1
  Zr  Zr2  1  0.24965197  0.50000000  0.50000000  1
  Zr  Zr3  1  0.49908219  0.24901479  0.50000000  1
  Zr  Zr4  1  0.75145480  -0.00000000  0.50000000  1
  Zr  Zr5  1  0.49929353  0.50000000  0.00000000  1
  Zr  Zr6  1  0.75075872  0.50000000  0.50000000  1
  Zr  Zr7  1  0.24889721  -0.00000000  0.50000000  1
  Zr  Zr8  1  0.75116911  0.24941020  -0.00000000  1
  Zr  Zr9  1  0.49908219  0.75098521  0.50000000  1
  Ta  Ta10  1  -0.00009834  0.74945599  0.50000000  1
  Ta  Ta11  1  0.24977370  0.24980979  0.00000000  1
  Ta  Ta12  1  0.24977370  0.75019021  0.00000000  1
  Ta  Ta13  1  -0.00036605  -0.00000000  0.00000000  1
  Ta  Ta14  1  -0.00009834  0.25054401  0.50000000  1
  Ta  Ta15  1  0.49923598  -0.00000000  0.00000000  1
  C  C16  1  0.00122281  -0.00000000  0.50000000  1
  C  C17  1  0.00527572  0.24458378  -0.00000000  1
  C  C18  1  0.24780652  -0.00000000  0.00000000  1
  C  C19  1  0.24424614  0.24849858  0.50000000  1
  C  C20  1  0.00122502  0.50000000  0.50000000  1
  C  C21  1  0.00527572  0.75541622  0.00000000  1
  C  C22  1  0.24891675  0.50000000  0.00000000  1
  C  C23  1  0.24424614  0.75150142  0.50000000  1
  C  C24  1  0.49823091  -0.00000000  0.50000000  1
  C  C25  1  0.49307824  0.24335524  0.00000000  1
  C  C26  1  0.75278094  -0.00000000  0.00000000  1
  C  C27  1  0.75764052  0.24861257  0.50000000  1
  C  C28  1  0.49866948  0.50000000  0.50000000  1
  C  C29  1  0.49307824  0.75664476  0.00000000  1
  C  C30  1  0.75138611  0.50000000  0.00000000  1
  C  C31  1  0.75764052  0.75138743  0.50000000  1
