# generated using pymatgen
data_Hf3Zr13C16
_symmetry_space_group_name_H-M   'P 1'
_cell_length_a   9.40074884
_cell_length_b   9.40074884
_cell_length_c   4.69671870
_cell_angle_alpha   90.00000000
_cell_angle_beta   90.00000000
_cell_angle_gamma   90.06528518
_symmetry_Int_Tables_number   1
_chemical_formula_structural   Hf3Zr13C16
_chemical_formula_sum   'Hf3 Zr13 C16'
_cell_volume   415.06791894
_cell_formula_units_Z   1
loop_
 _symmetry_equiv_pos_site_id
 _symmetry_equiv_pos_as_xyz
  1  'x, y, z'
loop_
 _atom_site_type_symbol
 _atom_site_label
 _atom_site_symmetry_multiplicity
 _atom_site_fract_x
 _atom_site_fract_y
 _atom_site_fract_z
 _atom_site_occupancy
  Zr  Zr0  1  0.99972135  0.99982104  0.00000000  1
  Zr  Zr1  1  0.99954741  0.24990527  0.50000000  1
  Zr  Zr2  1  0.75017896  0.75027865  0.00000000  1
  Zr  Zr3  1  0.25018704  0.24973007  0.00000000  1
  Zr  Zr4  1  0.99973189  0.50018836  0.00000000  1
  Zr  Zr5  1  0.24983619  0.50016381  0.50000000  1
  Zr  Zr6  1  0.50009473  0.75045259  0.50000000  1
  Zr  Zr7  1  0.50046636  0.24953364  0.50000000  1
  Zr  Zr8  1  0.74980636  0.00019364  0.50000000  1
  Zr  Zr9  1  0.50026993  0.49981296  0.00000000  1
  Zr  Zr10  1  0.75016984  0.49981801  0.50000000  1
  Zr  Zr11  1  0.24981164  0.75026811  0.00000000  1
  Zr  Zr12  1  0.25018199  0.99983016  0.50000000  1
  Hf  Hf13  1  0.74982440  0.24972053  0.00000000  1
  Hf  Hf14  1  0.50027947  0.00017560  0.00000000  1
  Hf  Hf15  1  0.99989285  0.75010715  0.50000000  1
  C  C16  1  0.99991869  0.99854915  0.50000000  1
  C  C17  1  0.99847068  0.24987106  0.00000000  1
  C  C18  1  0.25145331  0.00004887  0.00000000  1
  C  C19  1  0.24994950  0.24991974  0.50000000  1
  C  C20  1  0.99992000  0.50145374  0.50000000  1
  C  C21  1  0.99988655  0.75011345  0.00000000  1
  C  C22  1  0.25004553  0.49995447  0.00000000  1
  C  C23  1  0.24854626  0.75008000  0.50000000  1
  C  C24  1  0.50008426  0.99996498  0.50000000  1
  C  C25  1  0.50151557  0.24848443  0.00000000  1
  C  C26  1  0.74856303  0.00143697  0.00000000  1
  C  C27  1  0.75003502  0.24991574  0.50000000  1
  C  C28  1  0.50008026  0.50005050  0.50000000  1
  C  C29  1  0.50012894  0.75152932  0.00000000  1
  C  C30  1  0.74995113  0.49854669  0.00000000  1
  C  C31  1  0.75145085  0.75008131  0.50000000  1
