# generated using pymatgen
data_Zr13V3C16
_symmetry_space_group_name_H-M   'P 1'
_cell_length_a   9.23971631
_cell_length_b   9.23971631
_cell_length_c   4.63055156
_cell_angle_alpha   90.00000000
_cell_angle_beta   90.00000000
_cell_angle_gamma   90.03450124
_symmetry_Int_Tables_number   1
_chemical_formula_structural   Zr13V3C16
_chemical_formula_sum   'Zr13 V3 C16'
_cell_volume   395.32103127
_cell_formula_units_Z   1
loop_
 _symmetry_equiv_pos_site_id
 _symmetry_equiv_pos_as_xyz
  1  'x, y, z'
loop_
 _atom_site_type_symbol
 _atom_site_label
 _atom_site_symmetry_multiplicity
 _atom_site_fract_x
 _atom_site_fract_y
 _atom_site_fract_z
 _atom_site_occupancy
  Zr  Zr0  1  0.99846963  0.99842599  0.00000000  1
  Zr  Zr1  1  0.99622113  0.24939144  0.50000000  1
  Zr  Zr2  1  0.75157401  0.75153037  0.00000000  1
  Zr  Zr3  1  0.25163183  0.24752288  0.00000000  1
  Zr  Zr4  1  0.99810961  0.50124217  0.00000000  1
  Zr  Zr5  1  0.24828651  0.50171349  0.50000000  1
  Zr  Zr6  1  0.50060856  0.75377887  0.50000000  1
  Zr  Zr7  1  0.50313554  0.24686446  0.50000000  1
  Zr  Zr8  1  0.74825421  0.00174579  0.50000000  1
  Zr  Zr9  1  0.50247712  0.49836817  0.00000000  1
  Zr  Zr10  1  0.75114806  0.49829657  0.50000000  1
  Zr  Zr11  1  0.24875783  0.75189039  0.00000000  1
  Zr  Zr12  1  0.25170343  0.99885194  0.50000000  1
  V  V13  1  0.74788622  0.24494751  0.00000000  1
  V  V14  1  0.50505249  0.00211378  0.00000000  1
  V  V15  1  0.99654400  0.75345600  0.50000000  1
  C  C16  1  0.99809167  0.99002875  0.50000000  1
  C  C17  1  0.98961322  0.24851944  0.00000000  1
  C  C18  1  0.25526860  0.99959374  0.00000000  1
  C  C19  1  0.25091185  0.24834601  0.50000000  1
  C  C20  1  0.99808467  0.50601343  0.50000000  1
  C  C21  1  0.99877365  0.75122635  0.00000000  1
  C  C22  1  0.24900875  0.50099125  0.00000000  1
  C  C23  1  0.24398657  0.75191533  0.50000000  1
  C  C24  1  0.50195339  0.00056885  0.50000000  1
  C  C25  1  0.51086905  0.23913095  0.00000000  1
  C  C26  1  0.74063519  0.00936481  0.00000000  1
  C  C27  1  0.74943115  0.24804661  0.50000000  1
  C  C28  1  0.50165399  0.49908815  0.50000000  1
  C  C29  1  0.50148056  0.76038678  0.00000000  1
  C  C30  1  0.75040626  0.49473140  0.00000000  1
  C  C31  1  0.75997125  0.75190833  0.50000000  1
