# generated using pymatgen
data_Ta5Ti3C8
_symmetry_space_group_name_H-M   'P 1'
_cell_length_a   8.85261592
_cell_length_b   8.85394723
_cell_length_c   4.43796987
_cell_angle_alpha   90.00000000
_cell_angle_beta   90.00000000
_cell_angle_gamma   90.00367960
_symmetry_Int_Tables_number   1
_chemical_formula_structural   Ta5Ti3C8
_chemical_formula_sum   'Ta10 Ti6 C16'
_cell_volume   347.85071468
_cell_formula_units_Z   2
loop_
 _symmetry_equiv_pos_site_id
 _symmetry_equiv_pos_as_xyz
  1  'x, y, z'
loop_
 _atom_site_type_symbol
 _atom_site_label
 _atom_site_symmetry_multiplicity
 _atom_site_fract_x
 _atom_site_fract_y
 _atom_site_fract_z
 _atom_site_occupancy
  Ta  Ta0  1  0.00566491  0.99912339  0.00000000  1
  Ta  Ta1  1  0.74385961  0.99909180  0.50000000  1
  Ta  Ta2  1  0.74711998  0.50108381  0.50000000  1
  Ta  Ta3  1  0.00304369  0.50132640  0.00000000  1
  Ta  Ta4  1  0.25329301  0.75478299  0.00000000  1
  Ta  Ta5  1  0.00580165  0.24676943  0.50000000  1
  Ta  Ta6  1  0.74415399  0.24680446  0.00000000  1
  Ta  Ta7  1  0.25264968  0.49903726  0.50000000  1
  Ta  Ta8  1  0.74632509  0.75274239  0.00000000  1
  Ta  Ta9  1  0.49724142  0.49877062  0.00000000  1
  Ti  Ti10  1  0.00368304  0.75339381  0.50000000  1
  Ti  Ti11  1  0.49684185  0.75488895  0.50000000  1
  Ti  Ti12  1  0.25450433  0.24505726  0.00000000  1
  Ti  Ti13  1  0.49560431  0.00081561  0.00000000  1
  Ti  Ti14  1  0.25467403  0.00077610  0.50000000  1
  Ti  Ti15  1  0.49548761  0.24560236  0.50000000  1
  C  C16  1  0.00179168  0.24994448  0.00000000  1
  C  C17  1  0.00168131  0.99764714  0.50000000  1
  C  C18  1  0.25188652  0.24839344  0.50000000  1
  C  C19  1  0.25205844  0.00196477  0.00000000  1
  C  C20  1  0.00021006  0.75020659  0.00000000  1
  C  C21  1  0.00007675  0.50216384  0.50000000  1
  C  C22  1  0.25052404  0.75181096  0.50000000  1
  C  C23  1  0.25008160  0.49803545  0.00000000  1
  C  C24  1  0.49814187  0.24847986  0.00000000  1
  C  C25  1  0.49827434  0.99970612  0.50000000  1
  C  C26  1  0.74807876  0.24985708  0.50000000  1
  C  C27  1  0.74797332  0.00032684  0.00000000  1
  C  C28  1  0.49994012  0.75160459  0.00000000  1
  C  C29  1  0.49996528  0.50026047  0.50000000  1
  C  C30  1  0.74940673  0.75006746  0.50000000  1
  C  C31  1  0.74996092  0.49946433  0.00000000  1
