# generated using pymatgen
data_Zr5Ta11C16
_symmetry_space_group_name_H-M   'P 1'
_cell_length_a   9.08586974
_cell_length_b   9.06994418
_cell_length_c   4.55072551
_cell_angle_alpha   90.00000000
_cell_angle_beta   90.00000000
_cell_angle_gamma   90.05060746
_symmetry_Int_Tables_number   1
_chemical_formula_structural   Zr5Ta11C16
_chemical_formula_sum   'Zr5 Ta11 C16'
_cell_volume   375.01754943
_cell_formula_units_Z   1
loop_
 _symmetry_equiv_pos_site_id
 _symmetry_equiv_pos_as_xyz
  1  'x, y, z'
loop_
 _atom_site_type_symbol
 _atom_site_label
 _atom_site_symmetry_multiplicity
 _atom_site_fract_x
 _atom_site_fract_y
 _atom_site_fract_z
 _atom_site_occupancy
  Ta  Ta0  1  0.00119340  0.00112869  0.00000000  1
  Ta  Ta1  1  0.25032633  0.00114498  0.50000000  1
  Ta  Ta2  1  0.74976657  0.00073446  0.50000000  1
  Ta  Ta3  1  0.49835595  0.00073704  0.00000000  1
  Ta  Ta4  1  0.24901066  0.24954078  0.00000000  1
  Ta  Ta5  1  0.75101657  0.49827758  0.50000000  1
  Ta  Ta6  1  0.50204392  0.24933230  0.50000000  1
  Ta  Ta7  1  0.99947553  0.49864502  0.00000000  1
  Ta  Ta8  1  0.24966495  0.75157472  0.00000000  1
  Ta  Ta9  1  0.99834401  0.24914228  0.50000000  1
  Ta  Ta10  1  0.75099521  0.24946858  0.00000000  1
  Zr  Zr11  1  0.24897848  0.49894419  0.50000000  1
  Zr  Zr12  1  0.75026180  0.75041797  0.00000000  1
  Zr  Zr13  1  0.50084178  0.49852443  0.00000000  1
  Zr  Zr14  1  0.00043472  0.75067610  0.50000000  1
  Zr  Zr15  1  0.49931337  0.75145903  0.50000000  1
  C  C16  1  0.99939323  0.24945393  0.00000000  1
  C  C17  1  0.00069459  0.00459843  0.50000000  1
  C  C18  1  0.24918559  0.24531661  0.50000000  1
  C  C19  1  0.24994043  0.00151703  0.00000000  1
  C  C20  1  0.00442095  0.75094902  0.00000000  1
  C  C21  1  0.99639328  0.49479229  0.50000000  1
  C  C22  1  0.24912211  0.75601402  0.50000000  1
  C  C23  1  0.24492470  0.49794059  0.00000000  1
  C  C24  1  0.50064265  0.24522888  0.00000000  1
  C  C25  1  0.49916523  0.00471873  0.50000000  1
  C  C26  1  0.75076572  0.24924305  0.50000000  1
  C  C27  1  0.75007426  0.00549400  0.00000000  1
  C  C28  1  0.49534736  0.75635351  0.00000000  1
  C  C29  1  0.50454575  0.49355278  0.50000000  1
  C  C30  1  0.75070256  0.75135175  0.50000000  1
  C  C31  1  0.75465834  0.49372723  0.00000000  1
