# generated using pymatgen
data_Sc3Ta13C16
_symmetry_space_group_name_H-M   'P 1'
_cell_length_a   8.98726347
_cell_length_b   8.98726348
_cell_length_c   4.49414930
_cell_angle_alpha   90.00000000
_cell_angle_beta   90.00000000
_cell_angle_gamma   90.06192660
_symmetry_Int_Tables_number   1
_chemical_formula_structural   Sc3Ta13C16
_chemical_formula_sum   'Sc3 Ta13 C16'
_cell_volume   362.99629308
_cell_formula_units_Z   1
loop_
 _symmetry_equiv_pos_site_id
 _symmetry_equiv_pos_as_xyz
  1  'x, y, z'
loop_
 _atom_site_type_symbol
 _atom_site_label
 _atom_site_symmetry_multiplicity
 _atom_site_fract_x
 _atom_site_fract_y
 _atom_site_fract_z
 _atom_site_occupancy
  Ta  Ta0  1  0.00028941  0.99971059  0.00000000  1
  Ta  Ta1  1  0.24929042  0.99910747  0.50000000  1
  Ta  Ta2  1  0.00089253  0.75070958  0.50000000  1
  Ta  Ta3  1  0.24920084  0.50017085  0.50000000  1
  Ta  Ta4  1  0.50053293  0.99944156  0.00000000  1
  Ta  Ta5  1  0.75062993  0.24937007  0.00000000  1
  Ta  Ta6  1  0.49883572  0.50116428  0.00000000  1
  Ta  Ta7  1  0.75131982  0.49958490  0.50000000  1
  Ta  Ta8  1  0.75051615  0.75251126  0.00000000  1
  Ta  Ta9  1  0.49982915  0.75079916  0.50000000  1
  Ta  Ta10  1  0.24748874  0.24948385  0.00000000  1
  Ta  Ta11  1  0.50041510  0.24868018  0.50000000  1
  Ta  Ta12  1  0.00055844  0.49946707  0.00000000  1
  Sc  Sc13  1  0.24977342  0.75022658  0.00000000  1
  Sc  Sc14  1  0.99933969  0.24887704  0.50000000  1
  Sc  Sc15  1  0.75112296  0.00066031  0.50000000  1
  C  C16  1  0.00112178  0.25063933  0.00000000  1
  C  C17  1  0.00297545  0.99702455  0.50000000  1
  C  C18  1  0.25242571  0.24990417  0.50000000  1
  C  C19  1  0.25099258  0.00159866  0.00000000  1
  C  C20  1  0.99840134  0.74900742  0.00000000  1
  C  C21  1  0.99894896  0.50196449  0.50000000  1
  C  C22  1  0.24958778  0.75041222  0.50000000  1
  C  C23  1  0.25085156  0.49785018  0.00000000  1
  C  C24  1  0.49844489  0.25094320  0.00000000  1
  C  C25  1  0.49803551  0.00105104  0.50000000  1
  C  C26  1  0.74626921  0.25373079  0.50000000  1
  C  C27  1  0.74936067  0.99887822  0.00000000  1
  C  C28  1  0.50214982  0.74914844  0.00000000  1
  C  C29  1  0.50124686  0.49875314  0.50000000  1
  C  C30  1  0.75009583  0.74757429  0.50000000  1
  C  C31  1  0.74905680  0.50155511  0.00000000  1
