# generated using pymatgen
data_Ta13V3C16
_symmetry_space_group_name_H-M   'P 1'
_cell_length_a   8.87783404
_cell_length_b   8.87783404
_cell_length_c   4.42622872
_cell_angle_alpha   90.00000000
_cell_angle_beta   90.00000000
_cell_angle_gamma   89.97172131
_symmetry_Int_Tables_number   1
_chemical_formula_structural   Ta13V3C16
_chemical_formula_sum   'Ta13 V3 C16'
_cell_volume   348.85732257
_cell_formula_units_Z   1
loop_
 _symmetry_equiv_pos_site_id
 _symmetry_equiv_pos_as_xyz
  1  'x, y, z'
loop_
 _atom_site_type_symbol
 _atom_site_label
 _atom_site_symmetry_multiplicity
 _atom_site_fract_x
 _atom_site_fract_y
 _atom_site_fract_z
 _atom_site_occupancy
  Ta  Ta0  1  0.99730677  0.00269323  0.00000000  1
  Ta  Ta1  1  0.24752996  0.99725814  0.50000000  1
  Ta  Ta2  1  0.00274186  0.75247004  0.50000000  1
  Ta  Ta3  1  0.24850742  0.50292070  0.50000000  1
  Ta  Ta4  1  0.50243286  0.99877343  0.00000000  1
  Ta  Ta5  1  0.75443916  0.24556084  0.00000000  1
  Ta  Ta6  1  0.49835481  0.50164519  0.00000000  1
  Ta  Ta7  1  0.75212162  0.49822389  0.50000000  1
  Ta  Ta8  1  0.75077070  0.75503589  0.00000000  1
  Ta  Ta9  1  0.49707930  0.75149258  0.50000000  1
  Ta  Ta10  1  0.24496411  0.24922930  0.00000000  1
  Ta  Ta11  1  0.50177611  0.24787838  0.50000000  1
  Ta  Ta12  1  0.00122657  0.49756714  0.00000000  1
  V  V13  1  0.25015903  0.74984097  0.00000000  1
  V  V14  1  0.99708269  0.24620265  0.50000000  1
  V  V15  1  0.75379735  0.00291731  0.50000000  1
  C  C16  1  -0.00024776  0.24963264  0.00000000  1
  C  C17  1  0.99664281  0.00335719  0.50000000  1
  C  C18  1  0.24645887  0.24933097  0.50000000  1
  C  C19  1  0.24947846  0.99693652  0.00000000  1
  C  C20  1  0.00306348  0.75052154  0.00000000  1
  C  C21  1  0.00000628  0.49745024  0.50000000  1
  C  C22  1  0.24969140  0.75030860  0.50000000  1
  C  C23  1  0.24941733  0.50258746  0.00000000  1
  C  C24  1  0.49986294  0.24955314  0.00000000  1
  C  C25  1  0.50254976  -0.00000628  0.50000000  1
  C  C26  1  0.75379123  0.24620877  0.50000000  1
  C  C27  1  0.75036736  0.00024776  0.00000000  1
  C  C28  1  0.49741254  0.75058267  0.00000000  1
  C  C29  1  0.50009910  0.49990090  0.50000000  1
  C  C30  1  0.75066903  0.75354113  0.50000000  1
  C  C31  1  0.75044686  0.50013706  0.00000000  1
