# generated using pymatgen
data_Zr13Ta3C16
_symmetry_space_group_name_H-M   'P 1'
_cell_length_a   9.33245929
_cell_length_b   9.33245929
_cell_length_c   4.65101451
_cell_angle_alpha   90.00000000
_cell_angle_beta   90.00000000
_cell_angle_gamma   90.02386124
_symmetry_Int_Tables_number   1
_chemical_formula_structural   Zr13Ta3C16
_chemical_formula_sum   'Zr13 Ta3 C16'
_cell_volume   405.07912664
_cell_formula_units_Z   1
loop_
 _symmetry_equiv_pos_site_id
 _symmetry_equiv_pos_as_xyz
  1  'x, y, z'
loop_
 _atom_site_type_symbol
 _atom_site_label
 _atom_site_symmetry_multiplicity
 _atom_site_fract_x
 _atom_site_fract_y
 _atom_site_fract_z
 _atom_site_occupancy
  Zr  Zr0  1  0.99929080  0.99937063  0.00000000  1
  Zr  Zr1  1  0.99884567  0.24968618  0.50000000  1
  Zr  Zr2  1  0.75062937  0.75070920  0.00000000  1
  Zr  Zr3  1  0.25055867  0.24950395  0.00000000  1
  Zr  Zr4  1  0.99942358  0.50054220  0.00000000  1
  Zr  Zr5  1  0.24947218  0.50052782  0.50000000  1
  Zr  Zr6  1  0.50031382  0.75115433  0.50000000  1
  Zr  Zr7  1  0.50097538  0.24902462  0.50000000  1
  Zr  Zr8  1  0.74966088  0.00033912  0.50000000  1
  Zr  Zr9  1  0.50049605  0.49944133  0.00000000  1
  Zr  Zr10  1  0.75026332  0.49948273  0.50000000  1
  Zr  Zr11  1  0.24945780  0.75057642  0.00000000  1
  Zr  Zr12  1  0.25051727  0.99973668  0.50000000  1
  Ta  Ta13  1  0.74996719  0.24959013  0.00000000  1
  Ta  Ta14  1  0.50040987  0.00003281  0.00000000  1
  Ta  Ta15  1  0.99983016  0.75016984  0.50000000  1
  C  C16  1  0.99929306  0.99430314  0.50000000  1
  C  C17  1  0.99300301  0.24941809  0.00000000  1
  C  C18  1  0.25629197  0.99978313  0.00000000  1
  C  C19  1  0.24997006  0.24923105  0.50000000  1
  C  C20  1  0.99929640  0.50608877  0.50000000  1
  C  C21  1  0.99948983  0.75051017  0.00000000  1
  C  C22  1  0.24985947  0.50014053  0.00000000  1
  C  C23  1  0.24391123  0.75070360  0.50000000  1
  C  C24  1  0.50079900  0.00023494  0.50000000  1
  C  C25  1  0.50601926  0.24398074  0.00000000  1
  C  C26  1  0.74492503  0.00507497  0.00000000  1
  C  C27  1  0.74976506  0.24920100  0.50000000  1
  C  C28  1  0.50076895  0.50002994  0.50000000  1
  C  C29  1  0.50058191  0.75699699  0.00000000  1
  C  C30  1  0.75021687  0.49370803  0.00000000  1
  C  C31  1  0.75569686  0.75070694  0.50000000  1
