# generated using pymatgen
data_TaNbC2
_symmetry_space_group_name_H-M   'P 1'
_cell_length_a   8.98535829
_cell_length_b   8.97108087
_cell_length_c   4.46627480
_cell_angle_alpha   90.00000000
_cell_angle_beta   90.00000000
_cell_angle_gamma   89.95594057
_symmetry_Int_Tables_number   1
_chemical_formula_structural   TaNbC2
_chemical_formula_sum   'Ta8 Nb8 C16'
_cell_volume   360.01905145
_cell_formula_units_Z   8
loop_
 _symmetry_equiv_pos_site_id
 _symmetry_equiv_pos_as_xyz
  1  'x, y, z'
loop_
 _atom_site_type_symbol
 _atom_site_label
 _atom_site_symmetry_multiplicity
 _atom_site_fract_x
 _atom_site_fract_y
 _atom_site_fract_z
 _atom_site_occupancy
  Ta  Ta0  1  0.49886411  0.75194449  0.50000000  1
  Ta  Ta1  1  0.75000000  0.50000000  0.50000000  1
  Ta  Ta2  1  0.00097104  0.50116228  0.00000000  1
  Ta  Ta3  1  0.00113589  0.24805551  0.50000000  1
  Ta  Ta4  1  0.74914779  0.24810894  0.00000000  1
  Ta  Ta5  1  0.25000000  0.50000000  0.50000000  1
  Ta  Ta6  1  0.75085221  0.75189106  0.00000000  1
  Ta  Ta7  1  0.49902896  0.49883772  0.00000000  1
  Nb  Nb8  1  0.00114673  0.75185000  0.50000000  1
  Nb  Nb9  1  0.25120305  0.24829130  0.00000000  1
  Nb  Nb10  1  0.49943730  0.00141950  0.00000000  1
  Nb  Nb11  1  0.25000000  -0.00000000  0.50000000  1
  Nb  Nb12  1  0.49885327  0.24815000  0.50000000  1
  Nb  Nb13  1  0.75000000  -0.00000000  0.50000000  1
  Nb  Nb14  1  0.00056270  0.99858050  0.00000000  1
  Nb  Nb15  1  0.24879695  0.75170870  0.00000000  1
  C  C16  1  0.99883606  0.25096144  0.00000000  1
  C  C17  1  0.00036133  0.00128200  0.50000000  1
  C  C18  1  0.24870557  0.25095226  0.50000000  1
  C  C19  1  0.25000000  -0.00000000  0.00000000  1
  C  C20  1  0.99858416  0.74897391  0.00000000  1
  C  C21  1  0.00020633  0.49869550  0.50000000  1
  C  C22  1  0.25129443  0.74904774  0.50000000  1
  C  C23  1  0.25000000  0.50000000  0.00000000  1
  C  C24  1  0.50141584  0.25102609  0.00000000  1
  C  C25  1  0.49963867  0.99871800  0.50000000  1
  C  C26  1  0.75135430  0.25109275  0.50000000  1
  C  C27  1  0.75000000  -0.00000000  0.00000000  1
  C  C28  1  0.50116394  0.74903856  0.00000000  1
  C  C29  1  0.49979367  0.50130450  0.50000000  1
  C  C30  1  0.74864570  0.74890725  0.50000000  1
  C  C31  1  0.75000000  0.50000000  0.00000000  1
