# generated using pymatgen
data_Hf7Ta9C16
_symmetry_space_group_name_H-M   'P 1'
_cell_length_a   9.08909466
_cell_length_b   9.08895369
_cell_length_c   4.54781792
_cell_angle_alpha   90.00000000
_cell_angle_beta   90.00000000
_cell_angle_gamma   90.00858363
_symmetry_Int_Tables_number   1
_chemical_formula_structural   Hf7Ta9C16
_chemical_formula_sum   'Hf7 Ta9 C16'
_cell_volume   375.69687349
_cell_formula_units_Z   1
loop_
 _symmetry_equiv_pos_site_id
 _symmetry_equiv_pos_as_xyz
  1  'x, y, z'
loop_
 _atom_site_type_symbol
 _atom_site_label
 _atom_site_symmetry_multiplicity
 _atom_site_fract_x
 _atom_site_fract_y
 _atom_site_fract_z
 _atom_site_occupancy
  Ta  Ta0  1  0.49948497  0.74903938  0.50000000  1
  Ta  Ta1  1  0.75091959  0.50045914  0.50000000  1
  Ta  Ta2  1  0.99816264  0.50018468  0.00000000  1
  Ta  Ta3  1  0.99958168  0.25054234  0.50000000  1
  Ta  Ta4  1  0.75078355  0.25194234  0.00000000  1
  Ta  Ta5  1  0.24876298  0.50005320  0.50000000  1
  Ta  Ta6  1  0.74976244  0.74865723  0.00000000  1
  Ta  Ta7  1  0.50209371  0.50031999  0.00000000  1
  Ta  Ta8  1  0.00021787  0.74916451  0.50000000  1
  Hf  Hf9  1  0.24927704  0.25145980  0.00000000  1
  Hf  Hf10  1  0.50052006  0.99910288  0.00000000  1
  Hf  Hf11  1  0.24965033  0.99963882  0.50000000  1
  Hf  Hf12  1  0.50068008  0.25115683  0.50000000  1
  Hf  Hf13  1  0.75006373  0.99931087  0.50000000  1
  Hf  Hf14  1  -0.00033162  -0.00010472  0.00000000  1
  Hf  Hf15  1  0.25019910  0.74880812  0.00000000  1
  C  C16  1  0.99712684  0.25429166  0.00000000  1
  C  C17  1  0.99889903  0.00002502  0.50000000  1
  C  C18  1  0.24676707  0.25518323  0.50000000  1
  C  C19  1  0.24946710  0.99943888  0.00000000  1
  C  C20  1  0.99698143  0.74565410  0.00000000  1
  C  C21  1  0.99883323  0.49990228  0.50000000  1
  C  C22  1  0.24997728  0.74528447  0.50000000  1
  C  C23  1  0.24934433  0.50058543  0.00000000  1
  C  C24  1  0.50341779  0.25518053  0.00000000  1
  C  C25  1  0.50117187  0.99627037  0.50000000  1
  C  C26  1  0.75294961  0.25416591  0.50000000  1
  C  C27  1  0.75059450  0.99891583  0.00000000  1
  C  C28  1  0.50273818  0.74566474  0.00000000  1
  C  C29  1  0.50122803  0.50285041  0.50000000  1
  C  C30  1  0.75007954  0.74610529  0.50000000  1
  C  C31  1  0.75059605  0.50074645  0.00000000  1
