# generated using pymatgen
data_Y7Ta9C16
_symmetry_space_group_name_H-M   'P 1'
_cell_length_a   9.36830258
_cell_length_b   9.61376983
_cell_length_c   4.67980367
_cell_angle_alpha   90.00000000
_cell_angle_beta   90.00000000
_cell_angle_gamma   90.04597933
_symmetry_Int_Tables_number   1
_chemical_formula_structural   Y7Ta9C16
_chemical_formula_sum   'Y7 Ta9 C16'
_cell_volume   421.48499969
_cell_formula_units_Z   1
loop_
 _symmetry_equiv_pos_site_id
 _symmetry_equiv_pos_as_xyz
  1  'x, y, z'
loop_
 _atom_site_type_symbol
 _atom_site_label
 _atom_site_symmetry_multiplicity
 _atom_site_fract_x
 _atom_site_fract_y
 _atom_site_fract_z
 _atom_site_occupancy
  Ta  Ta0  1  0.50874534  0.74958048  0.50000000  1
  Ta  Ta1  1  0.73750063  0.49846798  0.50000000  1
  Ta  Ta2  1  0.00776647  0.50438699  0.00000000  1
  Ta  Ta3  1  0.00074946  0.28449111  0.50000000  1
  Ta  Ta4  1  0.75314316  0.25762995  0.00000000  1
  Ta  Ta5  1  0.25750162  0.50627319  0.50000000  1
  Ta  Ta6  1  0.74772627  0.72159065  0.00000000  1
  Ta  Ta7  1  0.49783633  0.49379631  0.00000000  1
  Ta  Ta8  1  0.99057951  0.74369431  0.50000000  1
  Y  Y9  1  0.24653802  0.25439034  0.00000000  1
  Y  Y10  1  0.50547087  0.99424953  0.00000000  1
  Y  Y11  1  0.24565327  0.99334068  0.50000000  1
  Y  Y12  1  0.49913289  0.24935363  0.50000000  1
  Y  Y13  1  0.75390864  0.00195053  0.50000000  1
  Y  Y14  1  0.99770342  0.99819669  0.00000000  1
  Y  Y15  1  0.25237393  0.74929478  0.00000000  1
  C  C16  1  0.99022040  0.27643897  0.00000000  1
  C  C17  1  0.99737727  0.95931701  0.50000000  1
  C  C18  1  0.22602882  0.26927325  0.50000000  1
  C  C19  1  0.25301842  0.00729474  0.00000000  1
  C  C20  1  0.98558715  0.73263937  0.00000000  1
  C  C21  1  0.99820098  0.50183994  0.50000000  1
  C  C22  1  0.25368335  0.72767746  0.50000000  1
  C  C23  1  0.24938967  0.50454482  0.00000000  1
  C  C24  1  0.51377269  0.27458716  0.00000000  1
  C  C25  1  0.50281952  0.96480974  0.50000000  1
  C  C26  1  0.76048263  0.27057593  0.50000000  1
  C  C27  1  0.75171056  0.03955999  0.00000000  1
  C  C28  1  0.51506327  0.73406944  0.00000000  1
  C  C29  1  0.50168879  0.50235874  0.50000000  1
  C  C30  1  0.74928507  0.73071375  0.50000000  1
  C  C31  1  0.74934157  0.50361250  0.00000000  1
