# generated using pymatgen
data_Ta15MnC16
_symmetry_space_group_name_H-M   'P 1'
_cell_length_a   8.94159026
_cell_length_b   8.94159027
_cell_length_c   4.45319465
_cell_angle_alpha   90.00000000
_cell_angle_beta   90.00000000
_cell_angle_gamma   89.97111807
_symmetry_Int_Tables_number   1
_chemical_formula_structural   Ta15MnC16
_chemical_formula_sum   'Ta15 Mn1 C16'
_cell_volume   356.04193566
_cell_formula_units_Z   1
loop_
 _symmetry_equiv_pos_site_id
 _symmetry_equiv_pos_as_xyz
  1  'x, y, z'
loop_
 _atom_site_type_symbol
 _atom_site_label
 _atom_site_symmetry_multiplicity
 _atom_site_fract_x
 _atom_site_fract_y
 _atom_site_fract_z
 _atom_site_occupancy
  Ta  Ta0  1  0.00341276  0.00341276  0.00000000  1
  Ta  Ta1  1  0.99908442  0.25083658  0.50000000  1
  Ta  Ta2  1  0.25083658  0.99908442  0.50000000  1
  Ta  Ta3  1  0.25197370  0.25197370  0.00000000  1
  Ta  Ta4  1  0.99477658  0.49732450  0.00000000  1
  Ta  Ta5  1  0.00030317  0.74886791  0.50000000  1
  Ta  Ta6  1  0.25610469  0.49937495  0.50000000  1
  Ta  Ta7  1  0.24867996  0.74707511  0.00000000  1
  Ta  Ta8  1  0.49732450  0.99477658  0.00000000  1
  Ta  Ta9  1  0.49937495  0.25610469  0.50000000  1
  Ta  Ta10  1  0.74886791  0.00030317  0.50000000  1
  Ta  Ta11  1  0.74707511  0.24867996  0.00000000  1
  Ta  Ta12  1  0.49864008  0.74194474  0.50000000  1
  Ta  Ta13  1  0.74194474  0.49864008  0.50000000  1
  Ta  Ta14  1  0.74928644  0.74928644  0.00000000  1
  Mn  Mn15  1  0.52278058  0.52278058  0.00000000  1
  C  C16  1  0.99887857  0.25081979  0.00000000  1
  C  C17  1  0.99937519  0.99937519  0.50000000  1
  C  C18  1  0.24931325  0.24931325  0.50000000  1
  C  C19  1  0.25081979  0.99887857  0.00000000  1
  C  C20  1  0.99910571  0.74914872  0.00000000  1
  C  C21  1  0.99916010  0.49994063  0.50000000  1
  C  C22  1  0.24967988  0.74885075  0.50000000  1
  C  C23  1  0.25171957  0.49976768  0.00000000  1
  C  C24  1  0.49976768  0.25171957  0.00000000  1
  C  C25  1  0.49994063  0.99916010  0.50000000  1
  C  C26  1  0.74885075  0.24967988  0.50000000  1
  C  C27  1  0.74914872  0.99910571  0.00000000  1
  C  C28  1  0.49980750  0.74616648  0.00000000  1
  C  C29  1  0.49878392  0.49878392  0.50000000  1
  C  C30  1  0.74901613  0.74901613  0.50000000  1
  C  C31  1  0.74616648  0.49980750  0.00000000  1
