# generated using pymatgen
data_HfZrC2
_symmetry_space_group_name_H-M   'P 1'
_cell_length_a   9.35915799
_cell_length_b   9.35805931
_cell_length_c   4.67755630
_cell_angle_alpha   90.00000000
_cell_angle_beta   90.00000000
_cell_angle_gamma   89.94016650
_symmetry_Int_Tables_number   1
_chemical_formula_structural   HfZrC2
_chemical_formula_sum   'Hf8 Zr8 C16'
_cell_volume   409.67678883
_cell_formula_units_Z   8
loop_
 _symmetry_equiv_pos_site_id
 _symmetry_equiv_pos_as_xyz
  1  'x, y, z'
loop_
 _atom_site_type_symbol
 _atom_site_label
 _atom_site_symmetry_multiplicity
 _atom_site_fract_x
 _atom_site_fract_y
 _atom_site_fract_z
 _atom_site_occupancy
  Hf  Hf0  1  0.00009612  0.00038315  0.00000000  1
  Hf  Hf1  1  0.49988796  0.99964368  0.00000000  1
  Hf  Hf2  1  0.75062985  0.24985163  0.00000000  1
  Hf  Hf3  1  0.00046242  0.49961389  0.00000000  1
  Hf  Hf4  1  0.25009547  0.74979298  0.00000000  1
  Hf  Hf5  1  0.99991105  0.25016925  0.50000000  1
  Hf  Hf6  1  0.24954506  0.50034950  0.50000000  1
  Hf  Hf7  1  0.49936835  0.75018700  0.50000000  1
  Zr  Zr8  1  0.24935265  0.25020672  0.00000000  1
  Zr  Zr9  1  0.75047465  0.49965543  0.50000000  1
  Zr  Zr10  1  0.00066144  0.74980251  0.50000000  1
  Zr  Zr11  1  0.75010921  0.00035071  0.50000000  1
  Zr  Zr12  1  0.24990452  0.99962382  0.50000000  1
  Zr  Zr13  1  0.50007699  0.24982107  0.50000000  1
  Zr  Zr14  1  0.49951583  0.50038043  0.00000000  1
  Zr  Zr15  1  0.74990677  0.75016968  0.00000000  1
  C  C16  1  0.00010637  0.00139387  0.50000000  1
  C  C17  1  0.99873574  0.24995103  0.00000000  1
  C  C18  1  0.24987341  0.99863863  0.00000000  1
  C  C19  1  0.24852949  0.25143167  0.50000000  1
  C  C20  1  0.00148900  0.49864037  0.50000000  1
  C  C21  1  0.00145368  0.75004700  0.00000000  1
  C  C22  1  0.24850837  0.50136945  0.00000000  1
  C  C23  1  0.25127775  0.74859372  0.50000000  1
  C  C24  1  0.49987358  0.99860295  0.50000000  1
  C  C25  1  0.50131154  0.24856354  0.00000000  1
  C  C26  1  0.75014582  0.00136614  0.00000000  1
  C  C27  1  0.75147846  0.25003497  0.50000000  1
  C  C28  1  0.49847878  0.50138764  0.50000000  1
  C  C29  1  0.49854210  0.75141278  0.00000000  1
  C  C30  1  0.75152463  0.49859752  0.00000000  1
  C  C31  1  0.74867293  0.74996725  0.50000000  1
