# generated using pymatgen
data_Hf15VC16
_symmetry_space_group_name_H-M   'P 1'
_cell_length_a   9.24271963
_cell_length_b   9.24271963
_cell_length_c   4.62074139
_cell_angle_alpha   90.00000000
_cell_angle_beta   90.00000000
_cell_angle_gamma   90.00000000
_symmetry_Int_Tables_number   1
_chemical_formula_structural   Hf15VC16
_chemical_formula_sum   'Hf15 V1 C16'
_cell_volume   394.74007702
_cell_formula_units_Z   1
loop_
 _symmetry_equiv_pos_site_id
 _symmetry_equiv_pos_as_xyz
  1  'x, y, z'
loop_
 _atom_site_type_symbol
 _atom_site_label
 _atom_site_symmetry_multiplicity
 _atom_site_fract_x
 _atom_site_fract_y
 _atom_site_fract_z
 _atom_site_occupancy
  Hf  Hf0  1  0.99831139  0.99831139  0.00000000  1
  Hf  Hf1  1  0.99959325  0.25000000  0.50000000  1
  Hf  Hf2  1  0.25000000  0.99959325  0.50000000  1
  Hf  Hf3  1  0.25000000  0.25000000  0.00000000  1
  Hf  Hf4  1  0.99831139  0.50168861  -0.00000000  1
  Hf  Hf5  1  0.99710503  0.75000000  0.50000000  1
  Hf  Hf6  1  0.25000000  0.50040675  0.50000000  1
  Hf  Hf7  1  0.25000000  0.75000000  0.00000000  1
  Hf  Hf8  1  0.50168861  0.99831139  -0.00000000  1
  Hf  Hf9  1  0.50040675  0.25000000  0.50000000  1
  Hf  Hf10  1  0.75000000  0.99710503  0.50000000  1
  Hf  Hf11  1  0.75000000  0.25000000  0.00000000  1
  Hf  Hf12  1  0.50168861  0.50168861  0.00000000  1
  Hf  Hf13  1  0.50289497  0.75000000  0.50000000  1
  Hf  Hf14  1  0.75000000  0.50289497  0.50000000  1
  V  V15  1  0.75000000  0.75000000  0.00000000  1
  C  C16  1  0.99860291  0.99860291  0.50000000  1
  C  C17  1  0.99934876  0.25000000  0.00000000  1
  C  C18  1  0.25000000  0.99934876  -0.00000000  1
  C  C19  1  0.25000000  0.25000000  0.50000000  1
  C  C20  1  0.99860291  0.50139709  0.50000000  1
  C  C21  1  0.99231943  0.75000000  0.00000000  1
  C  C22  1  0.25000000  0.50065124  -0.00000000  1
  C  C23  1  0.25000000  0.75000000  0.50000000  1
  C  C24  1  0.50139709  0.99860291  0.50000000  1
  C  C25  1  0.50065124  0.25000000  0.00000000  1
  C  C26  1  0.75000000  0.99231943  0.00000000  1
  C  C27  1  0.75000000  0.25000000  0.50000000  1
  C  C28  1  0.50139709  0.50139709  0.50000000  1
  C  C29  1  0.50768057  0.75000000  0.00000000  1
  C  C30  1  0.75000000  0.50768057  0.00000000  1
  C  C31  1  0.75000000  0.75000000  0.50000000  1
