# generated using pymatgen
data_Hf9Ta7C16
_symmetry_space_group_name_H-M   'P 1'
_cell_length_a   9.12774097
_cell_length_b   9.13575394
_cell_length_c   4.56353675
_cell_angle_alpha   90.00000000
_cell_angle_beta   90.00000000
_cell_angle_gamma   90.00000000
_symmetry_Int_Tables_number   1
_chemical_formula_structural   Hf9Ta7C16
_chemical_formula_sum   'Hf9 Ta7 C16'
_cell_volume   380.54783294
_cell_formula_units_Z   1
loop_
 _symmetry_equiv_pos_site_id
 _symmetry_equiv_pos_as_xyz
  1  'x, y, z'
loop_
 _atom_site_type_symbol
 _atom_site_label
 _atom_site_symmetry_multiplicity
 _atom_site_fract_x
 _atom_site_fract_y
 _atom_site_fract_z
 _atom_site_occupancy
  Hf  Hf0  1  0.00024150  0.99962372  0.00000000  1
  Hf  Hf1  1  0.49975850  0.99962372  0.00000000  1
  Hf  Hf2  1  0.49969073  0.24966269  0.50000000  1
  Hf  Hf3  1  0.75000000  0.25005823  0.00000000  1
  Hf  Hf4  1  0.50042416  0.50052707  0.00000000  1
  Hf  Hf5  1  0.99957584  0.50052707  0.00000000  1
  Hf  Hf6  1  0.25000000  0.75022645  0.00000000  1
  Hf  Hf7  1  0.00030927  0.24966269  0.50000000  1
  Hf  Hf8  1  0.25000000  0.49984988  0.50000000  1
  Ta  Ta9  1  0.50146449  0.75010370  0.50000000  1
  Ta  Ta10  1  0.75000000  0.74978130  0.00000000  1
  Ta  Ta11  1  0.25000000  0.24998415  0.00000000  1
  Ta  Ta12  1  0.75000000  0.50077287  0.50000000  1
  Ta  Ta13  1  0.99853551  0.75010370  0.50000000  1
  Ta  Ta14  1  0.75000000  0.99951495  0.50000000  1
  Ta  Ta15  1  0.25000000  0.00003752  0.50000000  1
  C  C16  1  0.99996790  0.99638129  0.50000000  1
  C  C17  1  0.00336112  0.24928404  0.00000000  1
  C  C18  1  0.25000000  0.00164223  0.00000000  1
  C  C19  1  0.25000000  0.24677505  0.50000000  1
  C  C20  1  0.99634734  0.50401172  0.50000000  1
  C  C21  1  0.99647733  0.75058190  0.00000000  1
  C  C22  1  0.25000000  0.49765343  0.00000000  1
  C  C23  1  0.25000000  0.75345541  0.50000000  1
  C  C24  1  0.50003210  0.99638129  0.50000000  1
  C  C25  1  0.49663888  0.24928404  0.00000000  1
  C  C26  1  0.75000000  0.99566745  0.00000000  1
  C  C27  1  0.75000000  0.24972955  0.50000000  1
  C  C28  1  0.50365266  0.50401172  0.50000000  1
  C  C29  1  0.50352267  0.75058190  0.00000000  1
  C  C30  1  0.75000000  0.50436819  0.00000000  1
  C  C31  1  0.75000000  0.75013109  0.50000000  1
