# generated using pymatgen
data_Hf5Sc3C8
_symmetry_space_group_name_H-M   'P 1'
_cell_length_a   9.30317086
_cell_length_b   9.33240920
_cell_length_c   4.65565841
_cell_angle_alpha   90.00000000
_cell_angle_beta   90.00000000
_cell_angle_gamma   90.00000000
_symmetry_Int_Tables_number   1
_chemical_formula_structural   Hf5Sc3C8
_chemical_formula_sum   'Hf10 Sc6 C16'
_cell_volume   404.20890635
_cell_formula_units_Z   2
loop_
 _symmetry_equiv_pos_site_id
 _symmetry_equiv_pos_as_xyz
  1  'x, y, z'
loop_
 _atom_site_type_symbol
 _atom_site_label
 _atom_site_symmetry_multiplicity
 _atom_site_fract_x
 _atom_site_fract_y
 _atom_site_fract_z
 _atom_site_occupancy
  Hf  Hf0  1  0.00003642  0.99934585  0.00000000  1
  Hf  Hf1  1  0.75000000  0.99839155  0.50000000  1
  Hf  Hf2  1  0.49996358  0.99934585  0.00000000  1
  Hf  Hf3  1  0.49889966  0.25076648  0.50000000  1
  Hf  Hf4  1  0.75000000  0.25055136  0.00000000  1
  Hf  Hf5  1  0.25000000  0.00075959  0.50000000  1
  Hf  Hf6  1  0.49978769  0.50036744  0.00000000  1
  Hf  Hf7  1  0.00021231  0.50036744  0.00000000  1
  Hf  Hf8  1  0.25000000  0.74980369  0.00000000  1
  Hf  Hf9  1  0.00110034  0.25076648  0.50000000  1
  Sc  Sc10  1  0.25000000  0.49991756  0.50000000  1
  Sc  Sc11  1  0.50102658  0.74924476  0.50000000  1
  Sc  Sc12  1  0.75000000  0.74932489  0.00000000  1
  Sc  Sc13  1  0.25000000  0.25098345  0.00000000  1
  Sc  Sc14  1  0.75000000  0.50159655  0.50000000  1
  Sc  Sc15  1  0.99897342  0.74924476  0.50000000  1
  C  C16  1  0.99998579  0.00308599  0.50000000  1
  C  C17  1  0.99734931  0.25017568  0.00000000  1
  C  C18  1  0.25000000  0.99710056  0.00000000  1
  C  C19  1  0.25000000  0.24593244  0.50000000  1
  C  C20  1  0.00004031  0.49538936  0.50000000  1
  C  C21  1  0.00342624  0.74885889  0.00000000  1
  C  C22  1  0.25000000  0.50451791  0.00000000  1
  C  C23  1  0.25000000  0.75491737  0.50000000  1
  C  C24  1  0.50001421  0.00308599  0.50000000  1
  C  C25  1  0.50265069  0.25017568  0.00000000  1
  C  C26  1  0.75000000  0.00215838  0.00000000  1
  C  C27  1  0.75000000  0.24653239  0.50000000  1
  C  C28  1  0.49995969  0.49538936  0.50000000  1
  C  C29  1  0.49657376  0.74885889  0.00000000  1
  C  C30  1  0.75000000  0.49743781  0.00000000  1
  C  C31  1  0.75000000  0.75560564  0.50000000  1
