# generated using pymatgen
data_Zr9Mo7C16
_symmetry_space_group_name_H-M   'P 1'
_cell_length_a   9.12229892
_cell_length_b   9.10187123
_cell_length_c   4.55859043
_cell_angle_alpha   90.00000000
_cell_angle_beta   90.00000000
_cell_angle_gamma   90.00000000
_symmetry_Int_Tables_number   1
_chemical_formula_structural   Zr9Mo7C16
_chemical_formula_sum   'Zr9 Mo7 C16'
_cell_volume   378.49971823
_cell_formula_units_Z   1
loop_
 _symmetry_equiv_pos_site_id
 _symmetry_equiv_pos_as_xyz
  1  'x, y, z'
loop_
 _atom_site_type_symbol
 _atom_site_label
 _atom_site_symmetry_multiplicity
 _atom_site_fract_x
 _atom_site_fract_y
 _atom_site_fract_z
 _atom_site_occupancy
  Zr  Zr0  1  0.75000000  0.74656767  0.00000000  1
  Zr  Zr1  1  0.00238278  0.50422059  0.00000000  1
  Zr  Zr2  1  0.25000000  0.50331126  0.50000000  1
  Zr  Zr3  1  0.49811063  0.24725722  0.50000000  1
  Zr  Zr4  1  0.75000000  0.99520954  0.50000000  1
  Zr  Zr5  1  0.49761722  0.50422059  0.00000000  1
  Zr  Zr6  1  0.00188937  0.24725722  0.50000000  1
  Zr  Zr7  1  0.25000000  0.99705998  0.50000000  1
  Zr  Zr8  1  0.75000000  0.25183182  0.00000000  1
  Mo  Mo9  1  0.25000000  0.76593282  0.00000000  1
  Mo  Mo10  1  0.00932705  0.75536748  0.50000000  1
  Mo  Mo11  1  0.25000000  0.22911513  0.00000000  1
  Mo  Mo12  1  0.98556623  0.99561397  0.00000000  1
  Mo  Mo13  1  0.51443377  0.99561397  0.00000000  1
  Mo  Mo14  1  0.75000000  0.50259027  0.50000000  1
  Mo  Mo15  1  0.49067295  0.75536748  0.50000000  1
  C  C16  1  0.00017532  0.99414975  0.50000000  1
  C  C17  1  0.00530993  0.24624758  0.00000000  1
  C  C18  1  0.25000000  0.00055871  0.00000000  1
  C  C19  1  0.25000000  0.24634357  0.50000000  1
  C  C20  1  0.99745965  0.50489897  0.50000000  1
  C  C21  1  0.00521211  0.75530579  0.00000000  1
  C  C22  1  0.25000000  0.50888636  0.00000000  1
  C  C23  1  0.25000000  0.75336758  0.50000000  1
  C  C24  1  0.49982468  0.99414975  0.50000000  1
  C  C25  1  0.49469007  0.24624758  0.00000000  1
  C  C26  1  0.75000000  0.99697477  0.00000000  1
  C  C27  1  0.75000000  0.25156539  0.50000000  1
  C  C28  1  0.50254035  0.50489897  0.50000000  1
  C  C29  1  0.49478789  0.75530579  0.00000000  1
  C  C30  1  0.75000000  0.50171200  0.00000000  1
  C  C31  1  0.75000000  0.74285038  0.50000000  1
