# generated using pymatgen
data_Hf3WC4
_symmetry_space_group_name_H-M   'P 1'
_cell_length_a   9.14134789
_cell_length_b   9.11976948
_cell_length_c   4.56691969
_cell_angle_alpha   90.00000000
_cell_angle_beta   90.00000000
_cell_angle_gamma   90.00000000
_symmetry_Int_Tables_number   1
_chemical_formula_structural   Hf3WC4
_chemical_formula_sum   'Hf12 W4 C16'
_cell_volume   380.73032755
_cell_formula_units_Z   4
loop_
 _symmetry_equiv_pos_site_id
 _symmetry_equiv_pos_as_xyz
  1  'x, y, z'
loop_
 _atom_site_type_symbol
 _atom_site_label
 _atom_site_symmetry_multiplicity
 _atom_site_fract_x
 _atom_site_fract_y
 _atom_site_fract_z
 _atom_site_occupancy
  Hf  Hf0  1  -0.00000000  -0.00000000  0.00000000  1
  Hf  Hf1  1  0.24861759  0.25000000  -0.00000000  1
  Hf  Hf2  1  0.24845820  0.50281584  0.50000000  1
  Hf  Hf3  1  0.50000000  -0.00000000  0.00000000  1
  Hf  Hf4  1  0.50064337  0.25000000  0.50000000  1
  Hf  Hf5  1  0.49935663  0.75000000  0.50000000  1
  Hf  Hf6  1  0.75154180  0.49718416  0.50000000  1
  Hf  Hf7  1  0.75138241  0.75000000  0.00000000  1
  Hf  Hf8  1  0.24845820  0.99718416  0.50000000  1
  Hf  Hf9  1  0.50000000  0.50000000  0.00000000  1
  Hf  Hf10  1  -0.00000000  0.50000000  0.00000000  1
  Hf  Hf11  1  0.75154180  0.00281584  0.50000000  1
  W  W12  1  0.25395892  0.75000000  0.00000000  1
  W  W13  1  0.00136157  0.25000000  0.50000000  1
  W  W14  1  0.74604108  0.25000000  0.00000000  1
  W  W15  1  0.99863843  0.75000000  0.50000000  1
  C  C16  1  -0.00000000  -0.00000000  0.50000000  1
  C  C17  1  0.99434822  0.25000000  0.00000000  1
  C  C18  1  0.24739775  0.99495475  0.00000000  1
  C  C19  1  0.24252907  0.25000000  0.50000000  1
  C  C20  1  -0.00000000  0.50000000  0.50000000  1
  C  C21  1  0.00565178  0.75000000  0.00000000  1
  C  C22  1  0.24739775  0.50504525  0.00000000  1
  C  C23  1  0.24530633  0.75000000  0.50000000  1
  C  C24  1  0.50000000  -0.00000000  0.50000000  1
  C  C25  1  0.50521787  0.25000000  -0.00000000  1
  C  C26  1  0.75260225  0.00504525  -0.00000000  1
  C  C27  1  0.75469367  0.25000000  0.50000000  1
  C  C28  1  0.50000000  0.50000000  0.50000000  1
  C  C29  1  0.49478213  0.75000000  0.00000000  1
  C  C30  1  0.75260225  0.49495475  -0.00000000  1
  C  C31  1  0.75747093  0.75000000  0.50000000  1
