# generated using pymatgen
data_Hf9Nb7C16
_symmetry_space_group_name_H-M   'P 1'
_cell_length_a   9.13889788
_cell_length_b   9.14943058
_cell_length_c   4.56597600
_cell_angle_alpha   90.00000000
_cell_angle_beta   90.00000000
_cell_angle_gamma   90.00000000
_symmetry_Int_Tables_number   1
_chemical_formula_structural   Hf9Nb7C16
_chemical_formula_sum   'Hf9 Nb7 C16'
_cell_volume   381.78733299
_cell_formula_units_Z   1
loop_
 _symmetry_equiv_pos_site_id
 _symmetry_equiv_pos_as_xyz
  1  'x, y, z'
loop_
 _atom_site_type_symbol
 _atom_site_label
 _atom_site_symmetry_multiplicity
 _atom_site_fract_x
 _atom_site_fract_y
 _atom_site_fract_z
 _atom_site_occupancy
  Hf  Hf0  1  0.00009375  0.99902433  0.00000000  1
  Hf  Hf1  1  0.49990625  0.99902433  0.00000000  1
  Hf  Hf2  1  0.50006733  0.24961727  0.50000000  1
  Hf  Hf3  1  0.75000000  0.24992567  0.00000000  1
  Hf  Hf4  1  0.50084136  0.50119324  0.00000000  1
  Hf  Hf5  1  0.99915864  0.50119324  0.00000000  1
  Hf  Hf6  1  0.25000000  0.75070119  0.00000000  1
  Hf  Hf7  1  0.99993267  0.24961727  0.50000000  1
  Hf  Hf8  1  0.25000000  0.50066452  0.50000000  1
  Nb  Nb9  1  0.50453042  0.75056414  0.50000000  1
  Nb  Nb10  1  0.75000000  0.74988860  0.00000000  1
  Nb  Nb11  1  0.25000000  0.24926241  0.00000000  1
  Nb  Nb12  1  0.75000000  0.50343502  0.50000000  1
  Nb  Nb13  1  0.99546958  0.75056414  0.50000000  1
  Nb  Nb14  1  0.75000000  0.99651612  0.50000000  1
  Nb  Nb15  1  0.25000000  0.99902471  0.50000000  1
  C  C16  1  0.00053356  0.99738910  0.50000000  1
  C  C17  1  0.00253607  0.24926331  0.00000000  1
  C  C18  1  0.25000000  0.00097065  0.00000000  1
  C  C19  1  0.25000000  0.24775792  0.50000000  1
  C  C20  1  0.99749045  0.50263461  0.50000000  1
  C  C21  1  0.99741356  0.75065287  0.00000000  1
  C  C22  1  0.25000000  0.49867448  0.00000000  1
  C  C23  1  0.25000000  0.75294821  0.50000000  1
  C  C24  1  0.49946644  0.99738910  0.50000000  1
  C  C25  1  0.49746393  0.24926331  0.00000000  1
  C  C26  1  0.75000000  0.99640344  0.00000000  1
  C  C27  1  0.75000000  0.24994587  0.50000000  1
  C  C28  1  0.50250955  0.50263461  0.50000000  1
  C  C29  1  0.50258644  0.75065287  0.00000000  1
  C  C30  1  0.75000000  0.50342824  0.00000000  1
  C  C31  1  0.75000000  0.74977522  0.50000000  1
