# generated using pymatgen
data_Hf11Zr5C16
_symmetry_space_group_name_H-M   'P 1'
_cell_length_a   9.33330420
_cell_length_b   9.33410807
_cell_length_c   4.66652455
_cell_angle_alpha   90.00000000
_cell_angle_beta   90.00000000
_cell_angle_gamma   89.95502683
_symmetry_Int_Tables_number   1
_chemical_formula_structural   Hf11Zr5C16
_chemical_formula_sum   'Hf11 Zr5 C16'
_cell_volume   406.53848722
_cell_formula_units_Z   1
loop_
 _symmetry_equiv_pos_site_id
 _symmetry_equiv_pos_as_xyz
  1  'x, y, z'
loop_
 _atom_site_type_symbol
 _atom_site_label
 _atom_site_symmetry_multiplicity
 _atom_site_fract_x
 _atom_site_fract_y
 _atom_site_fract_z
 _atom_site_occupancy
  Hf  Hf0  1  0.00017649  0.00039067  0.00000000  1
  Hf  Hf1  1  0.25048267  0.24950822  0.00000000  1
  Hf  Hf2  1  0.74969618  0.00078572  0.50000000  1
  Hf  Hf3  1  0.49982441  0.00078065  0.00000000  1
  Hf  Hf4  1  0.50015364  0.24973052  0.50000000  1
  Hf  Hf5  1  0.74950593  0.24988182  0.00000000  1
  Hf  Hf6  1  0.74971134  0.49920653  0.50000000  1
  Hf  Hf7  1  0.25029843  0.00039604  0.50000000  1
  Hf  Hf8  1  0.50021263  0.49921659  0.00000000  1
  Hf  Hf9  1  0.99979270  0.49960107  0.00000000  1
  Hf  Hf10  1  0.25010874  0.75050405  0.00000000  1
  Zr  Zr11  1  0.99983761  0.24974276  0.50000000  1
  Zr  Zr12  1  0.00019668  0.75026598  0.50000000  1
  Zr  Zr13  1  0.25029243  0.49960420  0.50000000  1
  Zr  Zr14  1  0.49980906  0.75027348  0.50000000  1
  Zr  Zr15  1  0.74990043  0.75011248  0.00000000  1
  C  C16  1  0.99996242  0.00022211  0.50000000  1
  C  C17  1  0.00005966  0.24991335  0.00000000  1
  C  C18  1  0.25008983  0.00021764  0.00000000  1
  C  C19  1  0.25150662  0.24849247  0.50000000  1
  C  C20  1  0.99855995  0.49977984  0.50000000  1
  C  C21  1  0.00143909  0.75008726  0.00000000  1
  C  C22  1  0.25008898  0.49976963  0.00000000  1
  C  C23  1  0.25011295  0.75153908  0.50000000  1
  C  C24  1  0.50003993  0.00158694  0.50000000  1
  C  C25  1  0.49995873  0.24991173  0.00000000  1
  C  C26  1  0.74990880  0.00158322  0.00000000  1
  C  C27  1  0.74850960  0.24986956  0.50000000  1
  C  C28  1  0.50141878  0.49838663  0.50000000  1
  C  C29  1  0.49856967  0.75008503  0.00000000  1
  C  C30  1  0.74990873  0.49840947  0.00000000  1
  C  C31  1  0.74986686  0.75014526  0.50000000  1
