# generated using pymatgen
data_HfReC2
_symmetry_space_group_name_H-M   'P 1'
_cell_length_a   9.01464527
_cell_length_b   8.98290458
_cell_length_c   4.45453339
_cell_angle_alpha   90.00000000
_cell_angle_beta   90.00000000
_cell_angle_gamma   90.47888073
_symmetry_Int_Tables_number   1
_chemical_formula_structural   HfReC2
_chemical_formula_sum   'Hf8 Re8 C16'
_cell_volume   360.70526149
_cell_formula_units_Z   8
loop_
 _symmetry_equiv_pos_site_id
 _symmetry_equiv_pos_as_xyz
  1  'x, y, z'
loop_
 _atom_site_type_symbol
 _atom_site_label
 _atom_site_symmetry_multiplicity
 _atom_site_fract_x
 _atom_site_fract_y
 _atom_site_fract_z
 _atom_site_occupancy
  Re  Re0  1  0.98899557  0.97460287  0.00000000  1
  Re  Re1  1  0.98549677  0.75137031  0.50000000  1
  Re  Re2  1  0.28321815  0.73754793  0.00000000  1
  Re  Re3  1  0.49374454  0.23543617  0.50000000  1
  Re  Re4  1  0.75341453  0.26841816  0.00000000  1
  Re  Re5  1  0.48934183  0.52488921  0.00000000  1
  Re  Re6  1  0.49533448  0.76305132  0.50000000  1
  Re  Re7  1  0.77649127  0.75475395  0.00000000  1
  Hf  Hf8  1  0.99458505  0.25126366  0.50000000  1
  Hf  Hf9  1  0.24076049  0.98876935  0.50000000  1
  Hf  Hf10  1  0.25085714  0.24551915  0.00000000  1
  Hf  Hf11  1  0.00178415  0.51037210  0.00000000  1
  Hf  Hf12  1  0.25308391  0.50108597  0.50000000  1
  Hf  Hf13  1  0.50474056  0.00073477  0.00000000  1
  Hf  Hf14  1  0.75134093  0.00123984  0.50000000  1
  Hf  Hf15  1  0.73965807  0.50440526  0.50000000  1
  C  C16  1  0.99455837  0.99650939  0.50000000  1
  C  C17  1  0.98740362  0.24647703  0.00000000  1
  C  C18  1  0.25075297  0.98857374  0.00000000  1
  C  C19  1  0.24734040  0.24398274  0.50000000  1
  C  C20  1  0.99397660  0.50494736  0.50000000  1
  C  C21  1  0.03580718  0.75637514  0.00000000  1
  C  C22  1  0.25268780  0.49938650  0.00000000  1
  C  C23  1  0.23658934  0.74521631  0.50000000  1
  C  C24  1  0.49807423  0.99603577  0.50000000  1
  C  C25  1  0.50546444  0.25816575  0.00000000  1
  C  C26  1  0.75415087  0.00159799  0.00000000  1
  C  C27  1  0.73807067  0.25294732  0.50000000  1
  C  C28  1  0.49554032  0.48686850  0.50000000  1
  C  C29  1  0.53044470  0.74826134  0.00000000  1
  C  C30  1  0.73975050  0.50785669  0.00000000  1
  C  C31  1  0.73654053  0.75333842  0.50000000  1
