# generated using pymatgen
data_Fe2NiW
_symmetry_space_group_name_H-M   'P 1'
_cell_length_a   5.82113243
_cell_length_b   5.72913514
_cell_length_c   7.34186346
_cell_angle_alpha   90.16813992
_cell_angle_beta   90.11813787
_cell_angle_gamma   90.49631586
_symmetry_Int_Tables_number   1
_chemical_formula_structural   Fe2NiW
_chemical_formula_sum   'Fe10 Ni5 W5'
_cell_volume   244.84077123
_cell_formula_units_Z   5
loop_
 _symmetry_equiv_pos_site_id
 _symmetry_equiv_pos_as_xyz
  1  'x, y, z'
loop_
 _atom_site_type_symbol
 _atom_site_label
 _atom_site_symmetry_multiplicity
 _atom_site_fract_x
 _atom_site_fract_y
 _atom_site_fract_z
 _atom_site_occupancy
  Fe  Fe0  1  0.09754528  0.30387431  0.23575170  1
  Fe  Fe1  1  0.29514661  0.88539412  0.75473950  1
  Fe  Fe2  1  0.41165973  0.19260891  0.48821672  1
  Fe  Fe3  1  0.20812654  0.59914710  0.00844118  1
  Fe  Fe4  1  0.31647854  0.89729456  0.24736683  1
  Fe  Fe5  1  0.41295268  0.20619894  0.01670230  1
  Fe  Fe6  1  0.50530393  0.49313266  0.25279392  1
  Fe  Fe7  1  0.60287737  0.79828484  0.49452739  1
  Fe  Fe8  1  0.69302818  0.10956364  0.24764259  1
  Fe  Fe9  1  0.78494182  0.40807717  0.49105271  1
  Ni  Ni10  1  0.89641163  0.70134524  0.74848648  1
  Ni  Ni11  1  0.59253853  0.79810191  0.00399650  1
  Ni  Ni12  1  0.79661414  0.41124281  0.00253626  1
  Ni  Ni13  1  0.88866220  0.69151531  0.25114429  1
  Ni  Ni14  1  0.51052685  0.51203034  0.75263074  1
  W  W15  1  -0.00029706  0.01112850  0.48451329  1
  W  W16  1  0.11356497  0.30592165  0.76654345  1
  W  W17  1  0.99727429  0.98479058  0.01189869  1
  W  W18  1  0.20926915  0.58501499  0.49017824  1
  W  W19  1  0.66737462  0.10533243  0.75083724  1
