# generated using pymatgen
data_Fe8Ni7W5
_symmetry_space_group_name_H-M   'P 1'
_cell_length_a   5.85989462
_cell_length_b   5.80189965
_cell_length_c   7.24336635
_cell_angle_alpha   90.44872185
_cell_angle_beta   90.26195088
_cell_angle_gamma   90.73926637
_symmetry_Int_Tables_number   1
_chemical_formula_structural   Fe8Ni7W5
_chemical_formula_sum   'Fe8 Ni7 W5'
_cell_volume   246.23300024
_cell_formula_units_Z   1
loop_
 _symmetry_equiv_pos_site_id
 _symmetry_equiv_pos_as_xyz
  1  'x, y, z'
loop_
 _atom_site_type_symbol
 _atom_site_label
 _atom_site_symmetry_multiplicity
 _atom_site_fract_x
 _atom_site_fract_y
 _atom_site_fract_z
 _atom_site_occupancy
  Fe  Fe0  1  0.09493624  0.30981326  0.23325780  1
  Fe  Fe1  1  0.29614801  0.88173570  0.75531951  1
  Fe  Fe2  1  0.40089756  0.19876196  0.48512466  1
  Fe  Fe3  1  0.21268940  0.60059358  0.00964740  1
  Fe  Fe4  1  0.31395513  0.89693600  0.24962622  1
  Fe  Fe5  1  0.40831571  0.20268325  0.01661258  1
  Fe  Fe6  1  0.50650375  0.49815913  0.24669423  1
  Fe  Fe7  1  0.60514671  0.79681859  0.49544061  1
  Ni  Ni8  1  0.69717033  0.10393746  0.24850627  1
  Ni  Ni9  1  0.79494722  0.40264466  0.49351397  1
  Ni  Ni10  1  0.89343599  0.70071967  0.74964158  1
  Ni  Ni11  1  0.59510676  0.80315234  0.00297205  1
  Ni  Ni12  1  0.79594356  0.40579631  0.00292979  1
  Ni  Ni13  1  0.88985658  0.69188855  0.25164160  1
  Ni  Ni14  1  0.51098768  0.50919698  0.75360261  1
  W  W15  1  0.00163036  0.01133022  0.48533328  1
  W  W16  1  0.11233270  0.30623014  0.76793438  1
  W  W17  1  0.00102411  0.98244536  0.01139808  1
  W  W18  1  0.20779878  0.59001089  0.49361741  1
  W  W19  1  0.66117342  0.10714596  0.74718597  1
