# generated using pymatgen
data_Fe14NiW5
_symmetry_space_group_name_H-M   'P 1'
_cell_length_a   5.76669204
_cell_length_b   5.77215515
_cell_length_c   7.34309494
_cell_angle_alpha   90.49346016
_cell_angle_beta   89.94803512
_cell_angle_gamma   90.03024425
_symmetry_Int_Tables_number   1
_chemical_formula_structural   Fe14NiW5
_chemical_formula_sum   'Fe14 Ni1 W5'
_cell_volume   244.41483044
_cell_formula_units_Z   1
loop_
 _symmetry_equiv_pos_site_id
 _symmetry_equiv_pos_as_xyz
  1  'x, y, z'
loop_
 _atom_site_type_symbol
 _atom_site_label
 _atom_site_symmetry_multiplicity
 _atom_site_fract_x
 _atom_site_fract_y
 _atom_site_fract_z
 _atom_site_occupancy
  Fe  Fe0  1  0.10099105  0.31230120  0.23281564  1
  Fe  Fe1  1  0.29144892  0.88078142  0.75044669  1
  Fe  Fe2  1  0.41061320  0.19575456  0.48490405  1
  Fe  Fe3  1  0.21206088  0.59732742  0.01233912  1
  Fe  Fe4  1  0.32312725  0.89750327  0.25059155  1
  Fe  Fe5  1  0.41266078  0.20539694  0.01368331  1
  Fe  Fe6  1  0.50858088  0.49629150  0.24319350  1
  Fe  Fe7  1  0.60466274  0.79523873  0.49439236  1
  Fe  Fe8  1  0.69314493  0.11430762  0.24448290  1
  Fe  Fe9  1  0.78471834  0.41025566  0.49477083  1
  Fe  Fe10  1  0.88994077  0.70104062  0.75164333  1
  Fe  Fe11  1  0.59337281  0.79392552  0.00611443  1
  Fe  Fe12  1  0.79587494  0.41292319  0.00512235  1
  Fe  Fe13  1  0.88219267  0.68951981  0.25288191  1
  Ni  Ni14  1  0.50837893  0.51106218  0.75384661  1
  W  W15  1  0.00036417  0.01834968  0.47558201  1
  W  W16  1  0.11411312  0.29802924  0.76888505  1
  W  W17  1  0.00106229  0.98107861  0.02393188  1
  W  W18  1  0.20735182  0.58450824  0.48859032  1
  W  W19  1  0.66533952  0.10440461  0.75178219  1
