# generated using pymatgen
data_FeNi2W
_symmetry_space_group_name_H-M   'P 1'
_cell_length_a   5.79365604
_cell_length_b   5.78180909
_cell_length_c   7.30536476
_cell_angle_alpha   90.29189027
_cell_angle_beta   90.02325967
_cell_angle_gamma   90.14233382
_symmetry_Int_Tables_number   1
_chemical_formula_structural   FeNi2W
_chemical_formula_sum   'Fe5 Ni10 W5'
_cell_volume   244.70979167
_cell_formula_units_Z   5
loop_
 _symmetry_equiv_pos_site_id
 _symmetry_equiv_pos_as_xyz
  1  'x, y, z'
loop_
 _atom_site_type_symbol
 _atom_site_label
 _atom_site_symmetry_multiplicity
 _atom_site_fract_x
 _atom_site_fract_y
 _atom_site_fract_z
 _atom_site_occupancy
  Fe  Fe0  1  0.09677745  0.30874577  0.23807076  1
  Fe  Fe1  1  0.29744553  0.88316189  0.75207092  1
  Fe  Fe2  1  0.39353404  0.19524140  0.49813788  1
  Fe  Fe3  1  0.20018651  0.60036462  0.00634366  1
  Fe  Fe4  1  0.30891046  0.90314399  0.25581903  1
  Ni  Ni5  1  0.40813849  0.20289888  0.00806694  1
  Ni  Ni6  1  0.50005500  0.49816821  0.24361857  1
  Ni  Ni7  1  0.60293613  0.80335429  0.49512253  1
  Ni  Ni8  1  0.69145684  0.09800328  0.24884842  1
  Ni  Ni9  1  0.79664874  0.40335571  0.49481680  1
  Ni  Ni10  1  0.89839292  0.70534545  0.75009246  1
  Ni  Ni11  1  0.59202760  0.80136871  0.00306279  1
  Ni  Ni12  1  0.80190155  0.40377455  0.00186911  1
  Ni  Ni13  1  0.89149403  0.68823844  0.24938916  1
  Ni  Ni14  1  0.51036355  0.50926716  0.75583311  1
  W  W15  1  0.00452933  0.01184161  0.47682756  1
  W  W16  1  0.11770631  0.30743835  0.76633998  1
  W  W17  1  0.00626697  0.98524639  0.01926967  1
  W  W18  1  0.20995710  0.58563494  0.48754887  1
  W  W19  1  0.67127146  0.10540636  0.74885179  1
