# generated using pymatgen
data_Fe7Ni8W5
_symmetry_space_group_name_H-M   'P 1'
_cell_length_a   5.86714884
_cell_length_b   5.77860416
_cell_length_c   7.26003556
_cell_angle_alpha   90.30860739
_cell_angle_beta   89.96489025
_cell_angle_gamma   90.50473086
_symmetry_Int_Tables_number   1
_chemical_formula_structural   Fe7Ni8W5
_chemical_formula_sum   'Fe7 Ni8 W5'
_cell_volume   246.13058247
_cell_formula_units_Z   1
loop_
 _symmetry_equiv_pos_site_id
 _symmetry_equiv_pos_as_xyz
  1  'x, y, z'
loop_
 _atom_site_type_symbol
 _atom_site_label
 _atom_site_symmetry_multiplicity
 _atom_site_fract_x
 _atom_site_fract_y
 _atom_site_fract_z
 _atom_site_occupancy
  Fe  Fe0  1  0.09567569  0.31028143  0.23279918  1
  Fe  Fe1  1  0.29951710  0.88270566  0.75340697  1
  Fe  Fe2  1  0.39546494  0.19565422  0.48825119  1
  Fe  Fe3  1  0.21172453  0.60330668  0.00807303  1
  Fe  Fe4  1  0.31529861  0.89690330  0.24913742  1
  Fe  Fe5  1  0.40988592  0.20394565  0.01433534  1
  Fe  Fe6  1  0.50568730  0.49770110  0.24799424  1
  Ni  Ni7  1  0.60240102  0.80016827  0.49567250  1
  Ni  Ni8  1  0.69591600  0.10230164  0.24943951  1
  Ni  Ni9  1  0.79541192  0.40118927  0.49367723  1
  Ni  Ni10  1  0.89452138  0.70243683  0.74951607  1
  Ni  Ni11  1  0.59603184  0.80108642  0.00319858  1
  Ni  Ni12  1  0.79546881  0.40639454  0.00274743  1
  Ni  Ni13  1  0.89009614  0.69198310  0.25241198  1
  Ni  Ni14  1  0.51123256  0.51024717  0.75240102  1
  W  W15  1  0.00207630  0.01109148  0.48406857  1
  W  W16  1  0.11342303  0.30407777  0.76858947  1
  W  W17  1  0.99893846  0.98314520  0.01234623  1
  W  W18  1  0.20743353  0.58790741  0.49425401  1
  W  W19  1  0.66379496  0.10747287  0.74768004  1
