# generated using pymatgen
data_Fe11Ni4W5
_symmetry_space_group_name_H-M   'P 1'
_cell_length_a   5.84982807
_cell_length_b   5.68602965
_cell_length_c   7.39012672
_cell_angle_alpha   90.35470344
_cell_angle_beta   90.13944645
_cell_angle_gamma   90.40129847
_symmetry_Int_Tables_number   1
_chemical_formula_structural   Fe11Ni4W5
_chemical_formula_sum   'Fe11 Ni4 W5'
_cell_volume   245.80108740
_cell_formula_units_Z   1
loop_
 _symmetry_equiv_pos_site_id
 _symmetry_equiv_pos_as_xyz
  1  'x, y, z'
loop_
 _atom_site_type_symbol
 _atom_site_label
 _atom_site_symmetry_multiplicity
 _atom_site_fract_x
 _atom_site_fract_y
 _atom_site_fract_z
 _atom_site_occupancy
  Fe  Fe0  1  0.09910468  0.30813426  0.23505849  1
  Fe  Fe1  1  0.29633524  0.88543871  0.75584668  1
  Fe  Fe2  1  0.40693749  0.19370859  0.48587429  1
  Fe  Fe3  1  0.21291663  0.60035352  0.00687637  1
  Fe  Fe4  1  0.31804003  0.90050563  0.24651691  1
  Fe  Fe5  1  0.41317541  0.20328979  0.01565585  1
  Fe  Fe6  1  0.50715888  0.49864369  0.25059105  1
  Fe  Fe7  1  0.60018778  0.79820603  0.49100035  1
  Fe  Fe8  1  0.68972498  0.10529640  0.24894837  1
  Fe  Fe9  1  0.79053280  0.41218711  0.49707331  1
  Fe  Fe10  1  0.89127066  0.69938220  0.75256373  1
  Ni  Ni11  1  0.59269745  0.79583023  0.00273925  1
  Ni  Ni12  1  0.79545167  0.40917956  0.00214470  1
  Ni  Ni13  1  0.89181120  0.69111114  0.25104727  1
  Ni  Ni14  1  0.50983494  0.50955848  0.75276011  1
  W  W15  1  -0.00008552  0.01229161  0.47897427  1
  W  W16  1  0.11342777  0.30026340  0.76597631  1
  W  W17  1  0.99531151  0.98528528  0.01660662  1
  W  W18  1  0.20834383  0.59042920  0.49418378  1
  W  W19  1  0.66782255  0.10090516  0.74956230  1
