# generated using pymatgen
data_Fe13Ni2W5
_symmetry_space_group_name_H-M   'P 1'
_cell_length_a   5.86983835
_cell_length_b   5.72706754
_cell_length_c   7.29578943
_cell_angle_alpha   90.10226479
_cell_angle_beta   89.95234771
_cell_angle_gamma   90.78216949
_symmetry_Int_Tables_number   1
_chemical_formula_structural   Fe13Ni2W5
_chemical_formula_sum   'Fe13 Ni2 W5'
_cell_volume   245.23894261
_cell_formula_units_Z   1
loop_
 _symmetry_equiv_pos_site_id
 _symmetry_equiv_pos_as_xyz
  1  'x, y, z'
loop_
 _atom_site_type_symbol
 _atom_site_label
 _atom_site_symmetry_multiplicity
 _atom_site_fract_x
 _atom_site_fract_y
 _atom_site_fract_z
 _atom_site_occupancy
  Fe  Fe0  1  0.09647682  0.31052463  0.23458931  1
  Fe  Fe1  1  0.28794704  0.88460416  0.75203129  1
  Fe  Fe2  1  0.40902876  0.19823158  0.48451007  1
  Fe  Fe3  1  0.21057454  0.60471252  0.00745571  1
  Fe  Fe4  1  0.31313990  0.89830553  0.25061898  1
  Fe  Fe5  1  0.41139143  0.20646208  0.01802640  1
  Fe  Fe6  1  0.51830312  0.49351421  0.24906759  1
  Fe  Fe7  1  0.60232042  0.79375723  0.49242851  1
  Fe  Fe8  1  0.69419599  0.11158981  0.24516820  1
  Fe  Fe9  1  0.79381876  0.40716008  0.49999442  1
  Fe  Fe10  1  0.88949427  0.69700082  0.74975072  1
  Fe  Fe11  1  0.59216288  0.78712841  0.00753203  1
  Fe  Fe12  1  0.79788704  0.41370193  0.99692503  1
  Ni  Ni13  1  0.89140166  0.69112039  0.25252613  1
  Ni  Ni14  1  0.50976825  0.51165269  0.75147776  1
  W  W15  1  0.99807181  0.01433816  0.48384767  1
  W  W16  1  0.11799220  0.30536599  0.76822440  1
  W  W17  1  0.99722151  0.98407954  0.01492773  1
  W  W18  1  0.20882730  0.58790157  0.48891185  1
  W  W19  1  0.65997630  0.09884866  0.75198618  1
