# generated using pymatgen
data_Fe8Ni7W5
_symmetry_space_group_name_H-M   'P 1'
_cell_length_a   5.86912287
_cell_length_b   5.91691651
_cell_length_c   7.13489971
_cell_angle_alpha   90.14647330
_cell_angle_beta   89.50310141
_cell_angle_gamma   91.57105608
_symmetry_Int_Tables_number   1
_chemical_formula_structural   Fe8Ni7W5
_chemical_formula_sum   'Fe8 Ni7 W5'
_cell_volume   247.67132636
_cell_formula_units_Z   1
loop_
 _symmetry_equiv_pos_site_id
 _symmetry_equiv_pos_as_xyz
  1  'x, y, z'
loop_
 _atom_site_type_symbol
 _atom_site_label
 _atom_site_symmetry_multiplicity
 _atom_site_fract_x
 _atom_site_fract_y
 _atom_site_fract_z
 _atom_site_occupancy
  Fe  Fe0  1  0.09134189  0.31080572  0.23263098  1
  Fe  Fe1  1  0.29816995  0.88546287  0.75323465  1
  Fe  Fe2  1  0.39623323  0.20523699  0.48566107  1
  Fe  Fe3  1  0.21148852  0.60250142  0.00998196  1
  Fe  Fe4  1  0.30852574  0.90150989  0.25152974  1
  Fe  Fe5  1  0.40720200  0.19996596  0.01883894  1
  Fe  Fe6  1  0.51516168  0.49590577  0.24644661  1
  Fe  Fe7  1  0.60357666  0.79258973  0.49469201  1
  Ni  Ni8  1  0.69622679  0.10000620  0.25025987  1
  Ni  Ni9  1  0.79997608  0.39958108  0.49335575  1
  Ni  Ni10  1  0.89494092  0.69757145  0.75046347  1
  Ni  Ni11  1  0.59722981  0.80116959  0.00483377  1
  Ni  Ni12  1  0.79503359  0.40373317  0.00251326  1
  Ni  Ni13  1  0.89384360  0.69255458  0.25007045  1
  Ni  Ni14  1  0.50931794  0.50755589  0.75385324  1
  W  W15  1  0.00099663  0.01024733  0.48901527  1
  W  W16  1  0.11363326  0.30827489  0.76804817  1
  W  W17  1  -0.00145906  0.98420506  0.00704309  1
  W  W18  1  0.20608560  0.59245986  0.49123279  1
  W  W19  1  0.66247516  0.10866256  0.74629491  1
