# generated using pymatgen
data_Fe4Ni11W5
_symmetry_space_group_name_H-M   'P 1'
_cell_length_a   5.77815130
_cell_length_b   5.73873145
_cell_length_c   7.29404920
_cell_angle_alpha   90.34688151
_cell_angle_beta   90.14697471
_cell_angle_gamma   90.58877276
_symmetry_Int_Tables_number   1
_chemical_formula_structural   Fe4Ni11W5
_chemical_formula_sum   'Fe4 Ni11 W5'
_cell_volume   241.84722632
_cell_formula_units_Z   1
loop_
 _symmetry_equiv_pos_site_id
 _symmetry_equiv_pos_as_xyz
  1  'x, y, z'
loop_
 _atom_site_type_symbol
 _atom_site_label
 _atom_site_symmetry_multiplicity
 _atom_site_fract_x
 _atom_site_fract_y
 _atom_site_fract_z
 _atom_site_occupancy
  Fe  Fe0  1  0.09757317  0.30612424  0.23866357  1
  Fe  Fe1  1  0.29717907  0.88529253  0.75023382  1
  Fe  Fe2  1  0.39118573  0.19986617  0.49746361  1
  Fe  Fe3  1  0.19961503  0.60055656  0.00322291  1
  Ni  Ni4  1  0.31374771  0.90198869  0.25189800  1
  Ni  Ni5  1  0.40728564  0.20380792  0.01045707  1
  Ni  Ni6  1  0.49875519  0.49792092  0.24482198  1
  Ni  Ni7  1  0.60599484  0.80001282  0.49520310  1
  Ni  Ni8  1  0.69643998  0.10048097  0.24871887  1
  Ni  Ni9  1  0.79599445  0.40250335  0.49410695  1
  Ni  Ni10  1  0.89706904  0.70339345  0.74954802  1
  Ni  Ni11  1  0.59391652  0.79888046  0.00185397  1
  Ni  Ni12  1  0.80031435  0.40401120  0.00223928  1
  Ni  Ni13  1  0.89383942  0.68988041  0.25081041  1
  Ni  Ni14  1  0.50898689  0.50978927  0.75691464  1
  W  W15  1  0.00486396  0.01537118  0.48155812  1
  W  W16  1  0.11467060  0.30402741  0.76751188  1
  W  W17  1  0.00652636  0.98353340  0.01339420  1
  W  W18  1  0.21252260  0.58775430  0.49290662  1
  W  W19  1  0.66351946  0.10480472  0.74847293  1
