# generated using pymatgen
data_Fe12Ni3W5
_symmetry_space_group_name_H-M   'P 1'
_cell_length_a   6.53952943
_cell_length_b   6.56401063
_cell_length_c   5.86160895
_cell_angle_alpha   90.12182110
_cell_angle_beta   90.04776961
_cell_angle_gamma   89.63866730
_symmetry_Int_Tables_number   1
_chemical_formula_structural   Fe12Ni3W5
_chemical_formula_sum   'Fe12 Ni3 W5'
_cell_volume   251.60707670
_cell_formula_units_Z   1
loop_
 _symmetry_equiv_pos_site_id
 _symmetry_equiv_pos_as_xyz
  1  'x, y, z'
loop_
 _atom_site_type_symbol
 _atom_site_label
 _atom_site_symmetry_multiplicity
 _atom_site_fract_x
 _atom_site_fract_y
 _atom_site_fract_z
 _atom_site_occupancy
  Fe  Fe0  1  0.01494344  0.00555556  0.00537352  1
  Fe  Fe1  1  0.20225528  0.40083849  0.00205657  1
  Fe  Fe2  1  0.08937115  0.69266226  0.24579992  1
  Fe  Fe3  1  0.30635370  0.11509236  0.25083487  1
  Fe  Fe4  1  0.19784133  0.40722100  0.49758446  1
  Fe  Fe5  1  0.49197164  0.49488540  0.25481734  1
  Fe  Fe6  1  0.78741864  0.59132531  0.01574215  1
  Fe  Fe7  1  0.70653259  0.89982698  0.25050577  1
  Fe  Fe8  1  0.30301623  0.11395016  0.74655241  1
  Fe  Fe9  1  0.60568493  0.20459609  0.49631193  1
  Fe  Fe10  1  0.91134853  0.30316962  0.24727091  1
  Fe  Fe11  1  0.49772551  0.49307210  0.74846645  1
  Ni  Ni12  1  0.78854503  0.58857292  0.48621186  1
  Ni  Ni13  1  0.91050714  0.30641689  0.75450516  1
  Ni  Ni14  1  0.07774950  0.68405626  0.75591613  1
  W  W15  1  0.38423062  0.79706596  0.99745088  1
  W  W16  1  0.00770167  0.00583788  0.48688117  1
  W  W17  1  0.60628231  0.20580835  0.00581175  1
  W  W18  1  0.39594405  0.79931946  0.49461995  1
  W  W19  1  0.71457669  0.89072696  0.75728677  1
