# generated using pymatgen
data_Fe3Ni12W5
_symmetry_space_group_name_H-M   'P 1'
_cell_length_a   5.72823882
_cell_length_b   5.78303255
_cell_length_c   7.34179870
_cell_angle_alpha   90.19046749
_cell_angle_beta   90.05158596
_cell_angle_gamma   90.16454915
_symmetry_Int_Tables_number   1
_chemical_formula_structural   Fe3Ni12W5
_chemical_formula_sum   'Fe3 Ni12 W5'
_cell_volume   243.20631911
_cell_formula_units_Z   1
loop_
 _symmetry_equiv_pos_site_id
 _symmetry_equiv_pos_as_xyz
  1  'x, y, z'
loop_
 _atom_site_type_symbol
 _atom_site_label
 _atom_site_symmetry_multiplicity
 _atom_site_fract_x
 _atom_site_fract_y
 _atom_site_fract_z
 _atom_site_occupancy
  Fe  Fe0  1  0.00117303  0.00991021  -0.00457358  1
  Fe  Fe1  1  0.20441728  0.38452386  0.99951170  1
  Fe  Fe2  1  0.10254904  0.70041383  0.25752179  1
  Ni  Ni3  1  0.29694660  0.10302507  0.24767792  1
  Ni  Ni4  1  0.20117880  0.40145996  0.50204448  1
  Ni  Ni5  1  0.49910293  0.49388642  0.25680317  1
  Ni  Ni6  1  0.80857669  0.60465597  0.00781342  1
  Ni  Ni7  1  0.70782198  0.90041531  0.24018928  1
  Ni  Ni8  1  0.28761968  0.09909149  0.74918164  1
  Ni  Ni9  1  0.59244656  0.19605792  0.49865293  1
  Ni  Ni10  1  0.90985093  0.30665461  0.24608774  1
  Ni  Ni11  1  0.49930565  0.49313360  0.74525988  1
  Ni  Ni12  1  0.80007667  0.59811358  0.49517216  1
  Ni  Ni13  1  0.90630911  0.31373449  0.75350331  1
  Ni  Ni14  1  0.10974270  0.69416579  0.74691609  1
  W  W15  1  0.37607525  0.77423202  0.00966194  1
  W  W16  1  0.98439895  0.01688835  0.49430648  1
  W  W17  1  0.59962043  0.22074460  0.00638918  1
  W  W18  1  0.40242641  0.79728211  0.48651411  1
  W  W19  1  0.71036130  0.89161083  0.76136633  1
