# generated using pymatgen
data_Fe9Ni6W5
_symmetry_space_group_name_H-M   'P 1'
_cell_length_a   6.69646151
_cell_length_b   6.37834368
_cell_length_c   5.83657572
_cell_angle_alpha   89.99733788
_cell_angle_beta   90.19416178
_cell_angle_gamma   93.20700488
_symmetry_Int_Tables_number   1
_chemical_formula_structural   Fe9Ni6W5
_chemical_formula_sum   'Fe9 Ni6 W5'
_cell_volume   248.90192285
_cell_formula_units_Z   1
loop_
 _symmetry_equiv_pos_site_id
 _symmetry_equiv_pos_as_xyz
  1  'x, y, z'
loop_
 _atom_site_type_symbol
 _atom_site_label
 _atom_site_symmetry_multiplicity
 _atom_site_fract_x
 _atom_site_fract_y
 _atom_site_fract_z
 _atom_site_occupancy
  Fe  Fe0  1  0.02080763  0.00139300  0.99804429  1
  Fe  Fe1  1  0.21900721  0.40811807  0.99065036  1
  Fe  Fe2  1  0.08402186  0.69138813  0.24060389  1
  Fe  Fe3  1  0.29688008  0.12239322  0.25159418  1
  Fe  Fe4  1  0.18516095  0.41588541  0.50893462  1
  Fe  Fe5  1  0.48702127  0.49793988  0.28103035  1
  Fe  Fe6  1  0.77326097  0.59197455  0.02864599  1
  Fe  Fe7  1  0.71080530  0.89299770  0.24865438  1
  Fe  Fe8  1  0.30973897  0.12284547  0.74299299  1
  Ni  Ni9  1  0.62373046  0.19491975  0.48640301  1
  Ni  Ni10  1  0.93113144  0.30266885  0.22093175  1
  Ni  Ni11  1  0.51107619  0.48961067  0.72369018  1
  Ni  Ni12  1  0.80291685  0.57564631  0.48140286  1
  Ni  Ni13  1  0.90553998  0.30747309  0.77554615  1
  Ni  Ni14  1  0.06240973  0.68432455  0.76354171  1
  W  W15  1  0.38133925  0.79025839  0.99667913  1
  W  W16  1  0.00285072  0.01170338  0.49252922  1
  W  W17  1  0.60115642  0.20634128  0.01740173  1
  W  W18  1  0.38244824  0.80809397  0.49493929  1
  W  W19  1  0.70869647  0.88402433  0.75578391  1
