# generated using pymatgen
data_Cr(FeNi)2
_symmetry_space_group_name_H-M   'P 1'
_cell_length_a   5.61108974
_cell_length_b   5.54892415
_cell_length_c   6.99678203
_cell_angle_alpha   90.16992239
_cell_angle_beta   90.04766385
_cell_angle_gamma   90.20343389
_symmetry_Int_Tables_number   1
_chemical_formula_structural   Cr(FeNi)2
_chemical_formula_sum   'Cr4 Fe8 Ni8'
_cell_volume   217.84597787
_cell_formula_units_Z   4
loop_
 _symmetry_equiv_pos_site_id
 _symmetry_equiv_pos_as_xyz
  1  'x, y, z'
loop_
 _atom_site_type_symbol
 _atom_site_label
 _atom_site_symmetry_multiplicity
 _atom_site_fract_x
 _atom_site_fract_y
 _atom_site_fract_z
 _atom_site_occupancy
  Fe  Fe0  1  0.10279628  0.30447875  0.24552542  1
  Fe  Fe1  1  0.30086355  0.90275219  0.74984737  1
  Fe  Fe2  1  0.39568817  0.19811417  0.49787306  1
  Fe  Fe3  1  0.20250752  0.59273574  0.00414562  1
  Fe  Fe4  1  0.30685313  0.90311314  0.25144738  1
  Fe  Fe5  1  0.39725125  0.20495930  -0.00060556  1
  Fe  Fe6  1  0.48307090  0.49594742  0.24998040  1
  Fe  Fe7  1  0.59541454  0.80176886  0.49829412  1
  Ni  Ni8  1  0.70256043  0.10207378  0.25038915  1
  Ni  Ni9  1  0.79870304  0.39977622  0.49903971  1
  Ni  Ni10  1  0.90443148  0.70161027  0.74828524  1
  Ni  Ni11  1  0.59480373  0.80475215  0.00094359  1
  Ni  Ni12  1  0.80306965  0.39671465  -0.00003624  1
  Ni  Ni13  1  0.89817780  0.69766955  0.25012583  1
  Ni  Ni14  1  0.50169754  0.50072501  0.74976850  1
  Ni  Ni15  1  0.00117759  0.00019403  0.50258907  1
  Cr  Cr16  1  0.11612632  0.29550167  0.75778466  1
  Cr  Cr17  1  0.00711981  0.99685258  0.00285673  1
  Cr  Cr18  1  0.21016076  0.60416545  0.49776732  1
  Cr  Cr19  1  0.67752652  0.09609506  0.74397863  1
