# generated using pymatgen
data_Ti6Al2CO
_symmetry_space_group_name_H-M   'P 1'
_cell_length_a   8.85385907
_cell_length_b   4.53698628
_cell_length_c   4.53698628
_cell_angle_alpha   90.00000000
_cell_angle_beta   90.00000000
_cell_angle_gamma   90.00000000
_symmetry_Int_Tables_number   1
_chemical_formula_structural   Ti6Al2CO
_chemical_formula_sum   'Ti6 Al2 C1 O1'
_cell_volume   182.24999991
_cell_formula_units_Z   1
loop_
 _symmetry_equiv_pos_site_id
 _symmetry_equiv_pos_as_xyz
  1  'x, y, z'
loop_
 _atom_site_type_symbol
 _atom_site_label
 _atom_site_symmetry_multiplicity
 _atom_site_fract_x
 _atom_site_fract_y
 _atom_site_fract_z
 _atom_site_occupancy
  Ti  Ti0  1  0.99853550  0.50000000  0.50000000  1
  Ti  Ti1  1  0.25000000  0.50000000  0.00000000  1
  Ti  Ti2  1  0.25000000  0.00000000  0.50000000  1
  Ti  Ti3  1  0.50146450  0.50000000  0.50000000  1
  Ti  Ti4  1  0.75000000  0.50000000  0.00000000  1
  Ti  Ti5  1  0.75000000  0.00000000  0.50000000  1
  Al  Al6  1  0.00130506  0.00000000  0.00000000  1
  Al  Al7  1  0.49869494  0.00000000  0.00000000  1
  O  O8  1  0.25000000  0.50000000  0.50000000  1
  C  C9  1  0.75000000  0.50000000  0.50000000  1
