# generated using pymatgen
data_Fe6Ni9W5
_symmetry_space_group_name_H-M   'P 1'
_cell_length_a   5.83839880
_cell_length_b   5.78405756
_cell_length_c   7.26294464
_cell_angle_alpha   90.06229708
_cell_angle_beta   89.79542517
_cell_angle_gamma   89.70562545
_symmetry_Int_Tables_number   1
_chemical_formula_structural   Fe6Ni9W5
_chemical_formula_sum   'Fe6 Ni9 W5'
_cell_volume   245.26203690
_cell_formula_units_Z   1
loop_
 _symmetry_equiv_pos_site_id
 _symmetry_equiv_pos_as_xyz
  1  'x, y, z'
loop_
 _atom_site_type_symbol
 _atom_site_label
 _atom_site_symmetry_multiplicity
 _atom_site_fract_x
 _atom_site_fract_y
 _atom_site_fract_z
 _atom_site_occupancy
  Fe  Fe0  1  0.01026425  0.00553658  0.00405150  1
  Fe  Fe1  1  0.20483144  0.39058953  -0.00031076  1
  Fe  Fe2  1  0.09092435  0.68414949  0.25440073  1
  Fe  Fe3  1  0.29389612  0.11623298  0.25311130  1
  Fe  Fe4  1  0.20310599  0.40399273  0.49818285  1
  Fe  Fe5  1  0.50086536  0.49347811  0.25616807  1
  Ni  Ni6  1  0.80855791  0.60281491  0.00663623  1
  Ni  Ni7  1  0.70637822  0.90175800  0.24434674  1
  Ni  Ni8  1  0.28908226  0.10300284  0.74689592  1
  Ni  Ni9  1  0.59152167  0.19811332  0.49638567  1
  Ni  Ni10  1  0.90219687  0.30434236  0.24597056  1
  Ni  Ni11  1  0.49534432  0.49194069  0.74272290  1
  Ni  Ni12  1  0.80618579  0.59523626  0.49591428  1
  Ni  Ni13  1  0.90682504  0.31227255  0.75482207  1
  Ni  Ni14  1  0.10810769  0.69372737  0.74723876  1
  W  W15  1  0.38630359  0.77533421  0.01018863  1
  W  W16  1  0.99081618  0.01961761  0.49377317  1
  W  W17  1  0.59454764  0.22148968  0.00647567  1
  W  W18  1  0.40182198  0.79530073  0.48426566  1
  W  W19  1  0.70842336  0.89107006  0.75876002  1
