# generated using pymatgen
data_Fe8Ni7W5
_symmetry_space_group_name_H-M   'P 1'
_cell_length_a   5.81198198
_cell_length_b   5.83201021
_cell_length_c   7.22152615
_cell_angle_alpha   89.75537703
_cell_angle_beta   89.89041294
_cell_angle_gamma   90.18006140
_symmetry_Int_Tables_number   1
_chemical_formula_structural   Fe8Ni7W5
_chemical_formula_sum   'Fe8 Ni7 W5'
_cell_volume   244.77362220
_cell_formula_units_Z   1
loop_
 _symmetry_equiv_pos_site_id
 _symmetry_equiv_pos_as_xyz
  1  'x, y, z'
loop_
 _atom_site_type_symbol
 _atom_site_label
 _atom_site_symmetry_multiplicity
 _atom_site_fract_x
 _atom_site_fract_y
 _atom_site_fract_z
 _atom_site_occupancy
  Fe  Fe0  1  0.00434504  0.00860153  0.00470838  1
  Fe  Fe1  1  0.19437696  0.39129467  0.99845339  1
  Fe  Fe2  1  0.09048429  0.68556258  0.25568826  1
  Fe  Fe3  1  0.29192694  0.11811753  0.25255746  1
  Fe  Fe4  1  0.20431830  0.40457975  0.49545741  1
  Fe  Fe5  1  0.50880149  0.49285861  0.25479640  1
  Fe  Fe6  1  0.81831943  0.60191802  0.00975489  1
  Fe  Fe7  1  0.71066076  0.89831683  0.24013402  1
  Ni  Ni8  1  0.28936207  0.10030928  0.74923642  1
  Ni  Ni9  1  0.59113344  0.19997394  0.49776858  1
  Ni  Ni10  1  0.90175721  0.30764822  0.25012026  1
  Ni  Ni11  1  0.49201260  0.49253007  0.74329918  1
  Ni  Ni12  1  0.80578310  0.59624273  0.49754079  1
  Ni  Ni13  1  0.90683780  0.31141814  0.75175376  1
  Ni  Ni14  1  0.10906333  0.69129543  0.74611036  1
  W  W15  1  0.38296266  0.77425156  0.01290987  1
  W  W16  1  0.98969313  0.01590040  0.49226953  1
  W  W17  1  0.59504030  0.22319903  0.00741449  1
  W  W18  1  0.40550330  0.79735885  0.47891804  1
  W  W19  1  0.70761789  0.88862284  0.76110848  1
