# generated using pymatgen
data_HfTaTiNbCrC5
_symmetry_space_group_name_H-M   'P 1'
_cell_length_a   6.25963307
_cell_length_b   7.00117174
_cell_length_c   10.35858244
_cell_angle_alpha   101.72738622
_cell_angle_beta   90.10894691
_cell_angle_gamma   102.61702641
_symmetry_Int_Tables_number   1
_chemical_formula_structural   HfTaTiNbCrC5
_chemical_formula_sum   'Hf4 Ta4 Ti4 Nb4 Cr4 C20'
_cell_volume   433.24330352
_cell_formula_units_Z   4
loop_
 _symmetry_equiv_pos_site_id
 _symmetry_equiv_pos_as_xyz
  1  'x, y, z'
loop_
 _atom_site_type_symbol
 _atom_site_label
 _atom_site_symmetry_multiplicity
 _atom_site_fract_x
 _atom_site_fract_y
 _atom_site_fract_z
 _atom_site_occupancy
  C  C0  1  0.56629371  0.30514845  0.95053817  1
  C  C1  1  0.08286426  0.30428126  0.95144822  1
  C  C2  1  0.81856959  0.30320724  0.44944021  1
  C  C3  1  0.33254266  0.30115000  0.45096901  1
  C  C4  1  0.62489790  0.49677425  0.24205578  1
  C  C5  1  0.12265234  0.49473919  0.24346652  1
  C  C6  1  0.92444920  0.69380392  0.04328500  1
  C  C7  1  0.42414464  0.68825812  0.04333105  1
  C  C8  1  0.86773911  0.49421162  0.75590960  1
  C  C9  1  0.37979395  0.49156884  0.75728805  1
  C  C10  1  0.67222739  0.69158235  0.54998806  1
  C  C11  1  0.17609955  0.70189468  0.54884276  1
  C  C12  1  0.97185172  0.89790650  0.34782751  1
  C  C13  1  0.47648939  0.90158836  0.34775399  1
  C  C14  1  0.77824524  0.10124745  0.14767679  1
  C  C15  1  0.27363766  0.10966142  0.14535735  1
  C  C16  1  0.72364660  0.89720844  0.85603329  1
  C  C17  1  0.22836709  0.89914278  0.85633642  1
  C  C18  1  0.03242482  0.10607098  0.66009052  1
  C  C19  1  0.51777267  0.11173612  0.65869014  1
  Hf  Hf20  1  0.74795870  0.99915800  0.50305033  1
  Hf  Hf21  1  0.10068736  0.40160265  0.60664084  1
  Hf  Hf22  1  0.19748279  0.79426322  0.19519686  1
  Hf  Hf23  1  0.95190567  0.79723932  0.70831680  1
  Ta  Ta24  1  0.25656290  0.00811101  0.50791749  1
  Ta  Ta25  1  0.55019802  0.20126497  0.29482753  1
  Ta  Ta26  1  0.79085785  0.20543796  0.80380204  1
  Ta  Ta27  1  0.89823722  0.60160266  0.40021479  1
  Ti  Ti28  1  0.00310899  0.00385381  0.99938492  1
  Ti  Ti29  1  0.85486485  0.40087853  0.09647546  1
  Ti  Ti30  1  0.69827585  0.79005208  0.19105979  1
  Ti  Ti31  1  0.65023478  0.59455269  0.90015402  1
  Nb  Nb32  1  0.49549086  0.99883676  0.99842021  1
  Nb  Nb33  1  0.04969466  0.20357717  0.30041725  1
  Nb  Nb34  1  0.40061614  0.59626163  0.39709593  1
  Nb  Nb35  1  0.44624475  0.78350219  0.70730934  1
  Cr  Cr36  1  0.35210632  0.39951622  0.07699549  1
  Cr  Cr37  1  0.30076726  0.23953932  0.81350479  1
  Cr  Cr38  1  0.60055376  0.40318454  0.57715729  1
  Cr  Cr39  1  0.15944176  0.58638332  0.91573037  1
