# generated using pymatgen
data_HfTaTiMnNbC5
_symmetry_space_group_name_H-M   'P 1'
_cell_length_a   6.25137750
_cell_length_b   6.99029387
_cell_length_c   10.36125020
_cell_angle_alpha   101.68316520
_cell_angle_beta   89.98266702
_cell_angle_gamma   102.66568273
_symmetry_Int_Tables_number   1
_chemical_formula_structural   HfTaTiMnNbC5
_chemical_formula_sum   'Hf4 Ta4 Ti4 Mn4 Nb4 C20'
_cell_volume   432.14488960
_cell_formula_units_Z   4
loop_
 _symmetry_equiv_pos_site_id
 _symmetry_equiv_pos_as_xyz
  1  'x, y, z'
loop_
 _atom_site_type_symbol
 _atom_site_label
 _atom_site_symmetry_multiplicity
 _atom_site_fract_x
 _atom_site_fract_y
 _atom_site_fract_z
 _atom_site_occupancy
  C  C0  1  0.56172611  0.30596494  0.95186698  1
  C  C1  1  0.09482396  0.31180499  0.95018257  1
  C  C2  1  0.81973374  0.30102197  0.44833428  1
  C  C3  1  0.32928516  0.30008139  0.44972859  1
  C  C4  1  0.62562466  0.49704261  0.24232231  1
  C  C5  1  0.12263996  0.49393153  0.24264600  1
  C  C6  1  0.92391504  0.69352556  0.04205890  1
  C  C7  1  0.42586087  0.68748168  0.04507558  1
  C  C8  1  0.86712525  0.49410878  0.75730722  1
  C  C9  1  0.37902732  0.49267945  0.75752739  1
  C  C10  1  0.66996705  0.68961931  0.54957165  1
  C  C11  1  0.17435297  0.70114957  0.54862756  1
  C  C12  1  0.97167840  0.89775118  0.34815481  1
  C  C13  1  0.47469345  0.90100186  0.34790249  1
  C  C14  1  0.77886582  0.10176688  0.14704073  1
  C  C15  1  0.27357066  0.10902449  0.14648260  1
  C  C16  1  0.72386173  0.89865554  0.85634249  1
  C  C17  1  0.22874523  0.90183936  0.85565365  1
  C  C18  1  0.02894986  0.10591058  0.66015621  1
  C  C19  1  0.51696418  0.11538726  0.65805896  1
  Hf  Hf20  1  0.74630074  0.99820945  0.50376216  1
  Hf  Hf21  1  0.09917796  0.40132737  0.60658622  1
  Hf  Hf22  1  0.19621648  0.79202258  0.19307294  1
  Hf  Hf23  1  0.95048412  0.79583761  0.70887209  1
  Ta  Ta24  1  0.25470104  0.00728503  0.50832629  1
  Ta  Ta25  1  0.54739769  0.19912914  0.29494738  1
  Ta  Ta26  1  0.78430098  0.20472766  0.80128894  1
  Ta  Ta27  1  0.89354813  0.59852436  0.39761218  1
  Ti  Ti28  1  0.00550725  0.00556483  0.99791457  1
  Ti  Ti29  1  0.84791442  0.40146449  0.09635471  1
  Ti  Ti30  1  0.69784844  0.79299371  0.19157318  1
  Ti  Ti31  1  0.64873387  0.59451731  0.90223181  1
  Nb  Nb32  1  0.49541973  0.99752316  0.99831139  1
  Nb  Nb33  1  0.04759900  0.20075262  0.29933739  1
  Nb  Nb34  1  0.39875820  0.59478009  0.39616744  1
  Nb  Nb35  1  0.44377074  0.78137176  0.70990948  1
  Mn  Mn36  1  0.38069239  0.41957359  0.09816724  1
  Mn  Mn37  1  0.30630366  0.23765526  0.80268556  1
  Mn  Mn38  1  0.60085761  0.39940392  0.57005903  1
  Mn  Mn39  1  0.16305612  0.57758713  0.91777901  1
