# generated using pymatgen
data_HfTaTiNbReC5
_symmetry_space_group_name_H-M   'P 1'
_cell_length_a   6.30510602
_cell_length_b   7.04192506
_cell_length_c   10.45129738
_cell_angle_alpha   101.72905661
_cell_angle_beta   89.92065446
_cell_angle_gamma   102.88931561
_symmetry_Int_Tables_number   1
_chemical_formula_structural   HfTaTiNbReC5
_chemical_formula_sum   'Hf4 Ta4 Ti4 Nb4 Re4 C20'
_cell_volume   442.43091095
_cell_formula_units_Z   4
loop_
 _symmetry_equiv_pos_site_id
 _symmetry_equiv_pos_as_xyz
  1  'x, y, z'
loop_
 _atom_site_type_symbol
 _atom_site_label
 _atom_site_symmetry_multiplicity
 _atom_site_fract_x
 _atom_site_fract_y
 _atom_site_fract_z
 _atom_site_occupancy
  C  C0  1  0.57418765  0.30424462  0.95300954  1
  C  C1  1  0.08598542  0.31079464  0.95005771  1
  C  C2  1  0.82719580  0.29872938  0.44673293  1
  C  C3  1  0.32577547  0.29910899  0.44734238  1
  C  C4  1  0.63528150  0.50097792  0.24586817  1
  C  C5  1  0.12303891  0.49592666  0.24384136  1
  C  C6  1  0.91724933  0.69857501  0.04495932  1
  C  C7  1  0.42090496  0.68780199  0.04374422  1
  C  C8  1  0.86662509  0.49363780  0.75426801  1
  C  C9  1  0.37797858  0.49263232  0.75637815  1
  C  C10  1  0.67070406  0.69773524  0.55081515  1
  C  C11  1  0.17643648  0.70224510  0.54760117  1
  C  C12  1  0.97344198  0.89741690  0.34871702  1
  C  C13  1  0.47535715  0.90077178  0.34777470  1
  C  C14  1  0.77778896  0.10073247  0.14702423  1
  C  C15  1  0.27017360  0.10386005  0.14825707  1
  C  C16  1  0.72390141  0.89773554  0.85524990  1
  C  C17  1  0.22212635  0.90358670  0.85566011  1
  C  C18  1  0.02775210  0.10288562  0.65621335  1
  C  C19  1  0.52026377  0.10964296  0.65691046  1
  Hf  Hf20  1  0.74947175  0.00129879  0.50166860  1
  Hf  Hf21  1  0.10667179  0.40369334  0.60533841  1
  Hf  Hf22  1  0.19922794  0.80005351  0.19480952  1
  Hf  Hf23  1  0.94554837  0.79547477  0.70322674  1
  Ta  Ta24  1  0.25563049  0.00428826  0.50486069  1
  Ta  Ta25  1  0.54961714  0.20074870  0.29626629  1
  Ta  Ta26  1  0.79648576  0.20414497  0.80425470  1
  Ta  Ta27  1  0.89129076  0.59734504  0.39479624  1
  Ti  Ti28  1  0.99283372  0.00147628  0.00076189  1
  Ti  Ti29  1  0.85778477  0.40296062  0.09664771  1
  Ti  Ti30  1  0.69790760  0.79078051  0.19127856  1
  Ti  Ti31  1  0.64129115  0.59299822  0.90010005  1
  Nb  Nb32  1  0.50231625  0.00557374  0.00091947  1
  Nb  Nb33  1  0.04649242  0.20220918  0.30194284  1
  Nb  Nb34  1  0.39962280  0.59684392  0.39611757  1
  Nb  Nb35  1  0.45402907  0.79690216  0.70484086  1
  Re  Re36  1  0.37296096  0.39784341  0.10956227  1
  Re  Re37  1  0.29121026  0.17542369  0.80452137  1
  Re  Re38  1  0.60466023  0.39751324  0.58155362  1
  Re  Re39  1  0.15277819  0.63338593  0.90610766  1
