# generated using pymatgen
data_HfTaTiNbTcC5
_symmetry_space_group_name_H-M   'P 1'
_cell_length_a   6.31503880
_cell_length_b   7.04159967
_cell_length_c   10.42972394
_cell_angle_alpha   101.68105475
_cell_angle_beta   90.20729795
_cell_angle_gamma   102.55737525
_symmetry_Int_Tables_number   1
_chemical_formula_structural   HfTaTiNbTcC5
_chemical_formula_sum   'Hf4 Ta4 Ti4 Nb4 Tc4 C20'
_cell_volume   442.76805083
_cell_formula_units_Z   4
loop_
 _symmetry_equiv_pos_site_id
 _symmetry_equiv_pos_as_xyz
  1  'x, y, z'
loop_
 _atom_site_type_symbol
 _atom_site_label
 _atom_site_symmetry_multiplicity
 _atom_site_fract_x
 _atom_site_fract_y
 _atom_site_fract_z
 _atom_site_occupancy
  C  C0  1  0.57789795  0.30463376  0.95177738  1
  C  C1  1  0.07027817  0.29724411  0.95429095  1
  C  C2  1  0.82799111  0.29973824  0.44510070  1
  C  C3  1  0.32460801  0.29795628  0.44676223  1
  C  C4  1  0.62497989  0.49682270  0.24350490  1
  C  C5  1  0.12031037  0.49487205  0.24401928  1
  C  C6  1  0.91965326  0.69783295  0.04610208  1
  C  C7  1  0.43496017  0.70060934  0.04596966  1
  C  C8  1  0.86815940  0.49416318  0.75519124  1
  C  C9  1  0.38587415  0.49821539  0.75413311  1
  C  C10  1  0.67457721  0.70000430  0.54910452  1
  C  C11  1  0.17479122  0.70146345  0.54798550  1
  C  C12  1  0.97326724  0.89726972  0.34833003  1
  C  C13  1  0.47531523  0.90209683  0.34837534  1
  C  C14  1  0.77807098  0.10112989  0.14837561  1
  C  C15  1  0.27326836  0.10554146  0.14676586  1
  C  C16  1  0.72496103  0.89700586  0.85575713  1
  C  C17  1  0.22794138  0.89930005  0.85590683  1
  C  C18  1  0.02836508  0.10521955  0.65793514  1
  C  C19  1  0.51743809  0.10866477  0.65735643  1
  Hf  Hf20  1  0.74898252  0.99937598  0.50141708  1
  Hf  Hf21  1  0.10211267  0.40045709  0.60458108  1
  Hf  Hf22  1  0.19810397  0.79294418  0.19444795  1
  Hf  Hf23  1  0.95198917  0.79739510  0.70704288  1
  Ta  Ta24  1  0.25549988  0.00445188  0.50313303  1
  Ta  Ta25  1  0.54910118  0.20145515  0.29712039  1
  Ta  Ta26  1  0.78837117  0.20435527  0.80152752  1
  Ta  Ta27  1  0.89840127  0.60169838  0.40210923  1
  Ti  Ti28  1  0.99689295  0.99494497  0.99936730  1
  Ti  Ti29  1  0.84926873  0.39987255  0.10021374  1
  Ti  Ti30  1  0.69897230  0.79420777  0.19536813  1
  Ti  Ti31  1  0.65092493  0.59688966  0.90315131  1
  Nb  Nb32  1  0.49759761  0.99704468  0.99874054  1
  Nb  Nb33  1  0.04766165  0.20221343  0.29923213  1
  Nb  Nb34  1  0.40157637  0.59705938  0.39921636  1
  Nb  Nb35  1  0.44755500  0.78208387  0.70621473  1
  Tc  Tc36  1  0.35297755  0.40472262  0.07886828  1
  Tc  Tc37  1  0.29977705  0.23750929  0.81427939  1
  Tc  Tc38  1  0.60553014  0.40349968  0.57597398  1
  Tc  Tc39  1  0.15599558  0.58803522  0.91525101  1
