# generated using pymatgen
data_HfZrTaTiTcC5
_symmetry_space_group_name_H-M   'P 1'
_cell_length_a   7.09957702
_cell_length_b   7.11923473
_cell_length_c   9.03223294
_cell_angle_alpha   90.21566674
_cell_angle_beta   90.14083337
_cell_angle_gamma   89.94762691
_symmetry_Int_Tables_number   1
_chemical_formula_structural   HfZrTaTiTcC5
_chemical_formula_sum   'Hf4 Zr4 Ta4 Ti4 Tc4 C20'
_cell_volume   456.51636497
_cell_formula_units_Z   4
loop_
 _symmetry_equiv_pos_site_id
 _symmetry_equiv_pos_as_xyz
  1  'x, y, z'
loop_
 _atom_site_type_symbol
 _atom_site_label
 _atom_site_symmetry_multiplicity
 _atom_site_fract_x
 _atom_site_fract_y
 _atom_site_fract_z
 _atom_site_occupancy
  C  C0  1  0.40392676  0.19392328  0.75194687  1
  C  C1  1  0.49831570  0.50244497  0.00589946  1
  C  C2  1  0.41128607  0.19581747  0.24902829  1
  C  C3  1  0.50835161  0.50923859  0.49686631  1
  C  C4  1  0.60691326  0.79892078  0.74818887  1
  C  C5  1  0.69783677  0.09458029  0.00649641  1
  C  C6  1  0.80034404  0.41498451  0.74905240  1
  C  C7  1  0.89579492  0.68685054  0.99943519  1
  C  C8  1  0.09379136  0.30770141  0.00048343  1
  C  C9  1  0.60127376  0.79655026  0.25454419  1
  C  C10  1  0.71052613  0.10018852  0.49765329  1
  C  C11  1  0.78741707  0.40427018  0.24836232  1
  C  C12  1  0.89684677  0.70472198  0.49645364  1
  C  C13  1  0.00439859  0.99009822  0.74203900  1
  C  C14  1  0.09330015  0.29470102  0.50006567  1
  C  C15  1  0.19748216  0.60641164  0.75386359  1
  C  C16  1  0.30412180  0.89423350  0.00054080  1
  C  C17  1  0.99308246  0.99428274  0.25501762  1
  C  C18  1  0.19990964  0.60517228  0.24742095  1
  C  C19  1  0.30181280  0.89874869  0.49960500  1
  Zr  Zr20  1  0.40652606  0.20214031  0.49802351  1
  Zr  Zr21  1  0.99399927  0.98850503  0.00189321  1
  Zr  Zr22  1  0.08973869  0.30161799  0.24961253  1
  Zr  Zr23  1  0.09595993  0.30210102  0.75128136  1
  Ta  Ta24  1  0.20879660  0.59687667  0.00410956  1
  Ta  Ta25  1  0.30761261  0.89698566  0.24989875  1
  Ta  Ta26  1  0.30365052  0.89604372  0.74806662  1
  Ta  Ta27  1  0.89026897  0.70002041  0.26276404  1
  Ti  Ti28  1  0.50586206  0.49995714  0.25053367  1
  Ti  Ti29  1  0.70003850  0.09947227  0.24735948  1
  Ti  Ti30  1  0.60438149  0.80244447  0.49754687  1
  Ti  Ti31  1  0.99854328  0.00832961  0.49709727  1
  Hf  Hf32  1  0.20184330  0.59993531  0.49867442  1
  Hf  Hf33  1  0.40421623  0.19800546  0.00250576  1
  Hf  Hf34  1  0.50314541  0.50570100  0.75087641  1
  Hf  Hf35  1  0.70433908  0.09174479  0.75285642  1
  Tc  Tc36  1  0.58995334  0.78530322  0.00872277  1
  Tc  Tc37  1  0.79299882  0.42895512  0.98961884  1
  Tc  Tc38  1  0.89607938  0.70349427  0.71894142  1
  Tc  Tc39  1  0.79531462  0.39852569  0.51665377  1
