# generated using pymatgen
data_HfZrTaTiCrC5
_symmetry_space_group_name_H-M   'P 1'
_cell_length_a   7.04443036
_cell_length_b   7.07890569
_cell_length_c   8.97799746
_cell_angle_alpha   90.12962058
_cell_angle_beta   90.08996790
_cell_angle_gamma   89.98244147
_symmetry_Int_Tables_number   1
_chemical_formula_structural   HfZrTaTiCrC5
_chemical_formula_sum   'Hf4 Zr4 Ta4 Ti4 Cr4 C20'
_cell_volume   447.70280804
_cell_formula_units_Z   4
loop_
 _symmetry_equiv_pos_site_id
 _symmetry_equiv_pos_as_xyz
  1  'x, y, z'
loop_
 _atom_site_type_symbol
 _atom_site_label
 _atom_site_symmetry_multiplicity
 _atom_site_fract_x
 _atom_site_fract_y
 _atom_site_fract_z
 _atom_site_occupancy
  C  C0  1  0.40409107  0.19427392  0.75198629  1
  C  C1  1  0.50758861  0.51041757  0.00442863  1
  C  C2  1  0.41041569  0.19787417  0.24864817  1
  C  C3  1  0.51393553  0.50730193  0.49632949  1
  C  C4  1  0.61234298  0.79829934  0.74800093  1
  C  C5  1  0.69877224  0.09280361  0.00607214  1
  C  C6  1  0.80097949  0.41621549  0.74881731  1
  C  C7  1  0.88834764  0.68585712  0.99843554  1
  C  C8  1  0.09018174  0.30959583  0.99867415  1
  C  C9  1  0.59939039  0.79613590  0.24933175  1
  C  C10  1  0.71107477  0.10293765  0.49705851  1
  C  C11  1  0.78755366  0.40341522  0.24815411  1
  C  C12  1  0.89193242  0.69678436  0.50485904  1
  C  C13  1  0.00231333  0.98404362  0.74254373  1
  C  C14  1  0.08620575  0.29734889  0.50076079  1
  C  C15  1  0.19444087  0.60793548  0.75375256  1
  C  C16  1  0.31226799  0.89135721  0.00097514  1
  C  C17  1  0.99366724  0.99305214  0.25517682  1
  C  C18  1  0.19794635  0.60416575  0.24743026  1
  C  C19  1  0.30161889  0.89818632  0.49974177  1
  Zr  Zr20  1  0.40613061  0.20239899  0.49779682  1
  Zr  Zr21  1  0.99299111  0.98788602  0.00013148  1
  Zr  Zr22  1  0.08862597  0.30197621  0.24945302  1
  Zr  Zr23  1  0.09612265  0.30122450  0.75068154  1
  Ta  Ta24  1  0.20600003  0.59852318  0.00109939  1
  Ta  Ta25  1  0.30497196  0.89761090  0.24999348  1
  Ta  Ta26  1  0.30760283  0.89576637  0.74791673  1
  Ta  Ta27  1  0.88837800  0.69538471  0.25768296  1
  Ti  Ti28  1  0.50647958  0.49751749  0.25052380  1
  Ti  Ti29  1  0.70209081  0.10342175  0.24833739  1
  Ti  Ti30  1  0.60377124  0.80071782  0.49477441  1
  Ti  Ti31  1  0.99624895  0.00226302  0.49896754  1
  Hf  Hf32  1  0.19954783  0.59964297  0.50024429  1
  Hf  Hf33  1  0.40657601  0.19983207  0.00232250  1
  Hf  Hf34  1  0.50442016  0.50605532  0.74978561  1
  Hf  Hf35  1  0.70517519  0.09463339  0.75150049  1
  Cr  Cr36  1  0.59507274  0.78080419  0.01945253  1
  Cr  Cr37  1  0.79749544  0.43398509  0.97569484  1
  Cr  Cr38  1  0.88833905  0.70448837  0.72845720  1
  Cr  Cr39  1  0.79889315  0.40786613  0.52400686  1
