# generated using pymatgen
data_ZrTaTiMoIrC5
_symmetry_space_group_name_H-M   'P 1'
_cell_length_a   7.01356178
_cell_length_b   7.07007268
_cell_length_c   8.95491882
_cell_angle_alpha   89.54621355
_cell_angle_beta   90.99363008
_cell_angle_gamma   89.54644678
_symmetry_Int_Tables_number   1
_chemical_formula_structural   ZrTaTiMoIrC5
_chemical_formula_sum   'Zr4 Ta4 Ti4 Mo4 Ir4 C20'
_cell_volume   443.94701335
_cell_formula_units_Z   4
loop_
 _symmetry_equiv_pos_site_id
 _symmetry_equiv_pos_as_xyz
  1  'x, y, z'
loop_
 _atom_site_type_symbol
 _atom_site_label
 _atom_site_symmetry_multiplicity
 _atom_site_fract_x
 _atom_site_fract_y
 _atom_site_fract_z
 _atom_site_occupancy
  C  C0  1  0.39741103  0.20118657  0.75312899  1
  C  C1  1  0.50029857  0.50404774  0.00191437  1
  C  C2  1  0.40944936  0.19379705  0.24299500  1
  C  C3  1  0.50845401  0.50693849  0.49873188  1
  C  C4  1  0.62189600  0.81010340  0.76133965  1
  C  C5  1  0.68441012  0.10491388  0.99943012  1
  C  C6  1  0.78433676  0.44401483  0.74193869  1
  C  C7  1  0.87327525  0.68551419  0.98704049  1
  C  C8  1  0.10425972  0.30122085  0.99710427  1
  C  C9  1  0.60125073  0.79447263  0.25980414  1
  C  C10  1  0.70782611  0.08799051  0.50551875  1
  C  C11  1  0.78887208  0.40537575  0.23937676  1
  C  C12  1  0.90719567  0.68801505  0.50380976  1
  C  C13  1  0.00279668  0.01029444  0.74106032  1
  C  C14  1  0.09383408  0.30305436  0.49642436  1
  C  C15  1  0.21543476  0.60777791  0.75030416  1
  C  C16  1  0.28953814  0.89748369  0.00014413  1
  C  C17  1  0.99354342  0.99091802  0.25485532  1
  C  C18  1  0.20320117  0.60074176  0.24760663  1
  C  C19  1  0.30691055  0.89170708  0.50260868  1
  Zr  Zr20  1  0.40543568  0.19508232  0.49895254  1
  Zr  Zr21  1  0.97984328  0.99648432  0.99263479  1
  Zr  Zr22  1  0.09492790  0.29843585  0.24886641  1
  Zr  Zr23  1  0.08840132  0.31509935  0.74290746  1
  Ta  Ta24  1  0.17561925  0.60046140  0.99977563  1
  Ta  Ta25  1  0.30454299  0.89150509  0.25160453  1
  Ta  Ta26  1  0.30797445  0.90104803  0.75135329  1
  Ta  Ta27  1  0.89141198  0.69747180  0.27490960  1
  Ti  Ti28  1  0.50781481  0.49701053  0.23778908  1
  Ti  Ti29  1  0.69684836  0.09251082  0.24678742  1
  Ti  Ti30  1  0.61697124  0.80561048  0.52149441  1
  Ti  Ti31  1  0.99793617  0.00446745  0.50612214  1
  Mo  Mo32  1  0.24402828  0.59685904  0.49506201  1
  Mo  Mo33  1  0.40254607  0.17341683  0.99557656  1
  Mo  Mo34  1  0.50025035  0.47522905  0.78190983  1
  Mo  Mo35  1  0.69521291  0.13684177  0.75299406  1
  Ir  Ir36  1  0.58659675  0.80648920  0.00749644  1
  Ir  Ir37  1  0.80801746  0.39028649  0.98842051  1
  Ir  Ir38  1  0.91846241  0.71727822  0.73365270  1
  Ir  Ir39  1  0.78296409  0.37884376  0.48655413  1
