# generated using pymatgen
data_ZrTaTiNbReC5
_symmetry_space_group_name_H-M   'P 1'
_cell_length_a   7.05666756
_cell_length_b   7.08045825
_cell_length_c   8.95066153
_cell_angle_alpha   89.95459369
_cell_angle_beta   90.15873433
_cell_angle_gamma   90.35615198
_symmetry_Int_Tables_number   1
_chemical_formula_structural   ZrTaTiNbReC5
_chemical_formula_sum   'Zr4 Ta4 Ti4 Nb4 Re4 C20'
_cell_volume   447.20430080
_cell_formula_units_Z   4
loop_
 _symmetry_equiv_pos_site_id
 _symmetry_equiv_pos_as_xyz
  1  'x, y, z'
loop_
 _atom_site_type_symbol
 _atom_site_label
 _atom_site_symmetry_multiplicity
 _atom_site_fract_x
 _atom_site_fract_y
 _atom_site_fract_z
 _atom_site_occupancy
  C  C0  1  0.40930896  0.20203160  0.75425779  1
  C  C1  1  0.50850642  0.50862444  0.00507216  1
  C  C2  1  0.40921817  0.19793779  0.24638224  1
  C  C3  1  0.50788376  0.50887967  0.49864669  1
  C  C4  1  0.60771988  0.80089417  0.74938819  1
  C  C5  1  0.69383892  0.10028274  0.00185805  1
  C  C6  1  0.79479805  0.40903023  0.74926430  1
  C  C7  1  0.88587688  0.68131450  0.99597536  1
  C  C8  1  0.09895566  0.30599722  0.00092894  1
  C  C9  1  0.60062588  0.79964087  0.25027071  1
  C  C10  1  0.70796097  0.09588272  0.49889299  1
  C  C11  1  0.79055832  0.39695126  0.25102263  1
  C  C12  1  0.89511721  0.69467630  0.49929156  1
  C  C13  1  0.00299618  0.99879308  0.74242758  1
  C  C14  1  0.09025553  0.30026667  0.49929494  1
  C  C15  1  0.20178155  0.60613739  0.75246946  1
  C  C16  1  0.29658636  0.90139849  0.99965388  1
  C  C17  1  0.99527980  0.99010451  0.25599213  1
  C  C18  1  0.20365150  0.60407631  0.24830187  1
  C  C19  1  0.30119770  0.89413159  0.50039874  1
  Zr  Zr20  1  0.40581048  0.20189501  0.50099883  1
  Zr  Zr21  1  0.99439370  0.99264760  0.99945353  1
  Zr  Zr22  1  0.10215554  0.29693608  0.25141781  1
  Zr  Zr23  1  0.09192921  0.30444288  0.74888618  1
  Ta  Ta24  1  0.19361043  0.60187787  0.99840176  1
  Ta  Ta25  1  0.30647707  0.89693720  0.25011064  1
  Ta  Ta26  1  0.29782431  0.89925974  0.74990328  1
  Ta  Ta27  1  0.89520194  0.70331163  0.25894104  1
  Ti  Ti28  1  0.49796353  0.50505438  0.24857521  1
  Ti  Ti29  1  0.69815991  0.09363615  0.25147115  1
  Ti  Ti30  1  0.60628283  0.79953686  0.50334499  1
  Ti  Ti31  1  0.99524268  0.00242416  0.50112138  1
  Nb  Nb32  1  0.19857477  0.60339706  0.50382470  1
  Nb  Nb33  1  0.40716557  0.20372642  0.99933253  1
  Nb  Nb34  1  0.52005684  0.50657252  0.75628673  1
  Nb  Nb35  1  0.70228500  0.08885263  0.75009870  1
  Re  Re36  1  0.57806848  0.80827193  0.99549242  1
  Re  Re37  1  0.80357439  0.39056794  0.02773115  1
  Re  Re38  1  0.91034668  0.71505681  0.73132894  1
  Re  Re39  1  0.79275895  0.38854357  0.47348880  1
