# generated using pymatgen
data_HfZrTaTiMnC5
_symmetry_space_group_name_H-M   'P 1'
_cell_length_a   7.02692540
_cell_length_b   7.07760117
_cell_length_c   8.99559192
_cell_angle_alpha   90.32410405
_cell_angle_beta   90.10723962
_cell_angle_gamma   89.95973906
_symmetry_Int_Tables_number   1
_chemical_formula_structural   HfZrTaTiMnC5
_chemical_formula_sum   'Hf4 Zr4 Ta4 Ti4 Mn4 C20'
_cell_volume   447.37669981
_cell_formula_units_Z   4
loop_
 _symmetry_equiv_pos_site_id
 _symmetry_equiv_pos_as_xyz
  1  'x, y, z'
loop_
 _atom_site_type_symbol
 _atom_site_label
 _atom_site_symmetry_multiplicity
 _atom_site_fract_x
 _atom_site_fract_y
 _atom_site_fract_z
 _atom_site_occupancy
  C  C0  1  0.40503696  0.19532581  0.75244762  1
  C  C1  1  0.50932586  0.50958108  0.00525749  1
  C  C2  1  0.41073379  0.19622796  0.24905517  1
  C  C3  1  0.51379032  0.50801988  0.49802905  1
  C  C4  1  0.61151721  0.79890737  0.74530131  1
  C  C5  1  0.69661834  0.08498034  0.00624352  1
  C  C6  1  0.80408842  0.42704953  0.74879720  1
  C  C7  1  0.88591236  0.68341274  0.99710304  1
  C  C8  1  0.08959009  0.30995629  0.99950165  1
  C  C9  1  0.59985063  0.79484692  0.25035294  1
  C  C10  1  0.71257756  0.10417090  0.49776923  1
  C  C11  1  0.78687504  0.40303040  0.23924542  1
  C  C12  1  0.89183330  0.69581705  0.50158324  1
  C  C13  1  0.00346323  0.98352599  0.74157658  1
  C  C14  1  0.08567447  0.29678173  0.50182477  1
  C  C15  1  0.19522701  0.60804041  0.75418871  1
  C  C16  1  0.31150870  0.89130396  0.00136628  1
  C  C17  1  0.99251293  0.99176223  0.25489041  1
  C  C18  1  0.19896793  0.60337777  0.24794457  1
  C  C19  1  0.30197536  0.89836181  0.49960716  1
  Zr  Zr20  1  0.40922308  0.20324492  0.49804722  1
  Zr  Zr21  1  0.99281179  0.98519666  0.99997744  1
  Zr  Zr22  1  0.08757767  0.30117045  0.24913403  1
  Zr  Zr23  1  0.09641380  0.30313109  0.75216282  1
  Ta  Ta24  1  0.21095736  0.59708778  0.00258668  1
  Ta  Ta25  1  0.30470816  0.89674330  0.25076700  1
  Ta  Ta26  1  0.30798284  0.89526191  0.74763230  1
  Ta  Ta27  1  0.88843886  0.69570017  0.25965368  1
  Ti  Ti28  1  0.50699398  0.49828360  0.24947725  1
  Ti  Ti29  1  0.70089752  0.09789252  0.24711026  1
  Ti  Ti30  1  0.60278081  0.79828365  0.49623582  1
  Ti  Ti31  1  0.99699856  0.00447948  0.49893991  1
  Hf  Hf32  1  0.19943612  0.59825616  0.50049214  1
  Hf  Hf33  1  0.40759400  0.19720565  0.00270193  1
  Hf  Hf34  1  0.50613219  0.50739571  0.75134162  1
  Hf  Hf35  1  0.70681744  0.09312882  0.75187851  1
  Mn  Mn36  1  0.58733485  0.78225395  0.01772291  1
  Mn  Mn37  1  0.79704741  0.44409297  0.98525309  1
  Mn  Mn38  1  0.88365008  0.70385295  0.71718218  1
  Mn  Mn39  1  0.79912394  0.41285811  0.52961785  1
