# generated using pymatgen
data_ZrTaTiMoAuC5
_symmetry_space_group_name_H-M   'P 1'
_cell_length_a   7.09050849
_cell_length_b   7.21260642
_cell_length_c   9.12202569
_cell_angle_alpha   90.13630132
_cell_angle_beta   90.45325157
_cell_angle_gamma   88.73424460
_symmetry_Int_Tables_number   1
_chemical_formula_structural   ZrTaTiMoAuC5
_chemical_formula_sum   'Zr4 Ta4 Ti4 Mo4 Au4 C20'
_cell_volume   466.38038534
_cell_formula_units_Z   4
loop_
 _symmetry_equiv_pos_site_id
 _symmetry_equiv_pos_as_xyz
  1  'x, y, z'
loop_
 _atom_site_type_symbol
 _atom_site_label
 _atom_site_symmetry_multiplicity
 _atom_site_fract_x
 _atom_site_fract_y
 _atom_site_fract_z
 _atom_site_occupancy
  C  C0  1  0.40912691  0.19265715  0.75501460  1
  C  C1  1  0.48720741  0.47446273  0.00071054  1
  C  C2  1  0.41172143  0.19642061  0.24672502  1
  C  C3  1  0.49692009  0.50621863  0.49832565  1
  C  C4  1  0.59829739  0.80953055  0.74108079  1
  C  C5  1  0.68388546  0.08587175  0.99834559  1
  C  C6  1  0.78249014  0.43017067  0.74229177  1
  C  C7  1  0.91510584  0.70599217  0.01500195  1
  C  C8  1  0.10478701  0.31277927  0.99683880  1
  C  C9  1  0.60192834  0.80472904  0.27187181  1
  C  C10  1  0.70114767  0.07306810  0.50401143  1
  C  C11  1  0.78787949  0.40773918  0.24456312  1
  C  C12  1  0.92290743  0.70552206  0.49064944  1
  C  C13  1  0.00255707  0.01577641  0.74045325  1
  C  C14  1  0.09854727  0.30265998  0.49748431  1
  C  C15  1  0.23050161  0.60772072  0.74866560  1
  C  C16  1  0.30217430  0.90137475  0.99953949  1
  C  C17  1  0.99583248  0.00380773  0.25391813  1
  C  C18  1  0.20482157  0.61005595  0.24725489  1
  C  C19  1  0.29786406  0.89567044  0.49868151  1
  Zr  Zr20  1  0.40244848  0.20546124  0.50080014  1
  Zr  Zr21  1  0.98896410  0.01840558  0.99557183  1
  Zr  Zr22  1  0.09256977  0.30817492  0.24700223  1
  Zr  Zr23  1  0.08484631  0.33081571  0.74620712  1
  Ta  Ta24  1  0.19510796  0.61961390  0.00865303  1
  Ta  Ta25  1  0.30551233  0.90364185  0.25572356  1
  Ta  Ta26  1  0.28768431  0.90537988  0.74431348  1
  Ta  Ta27  1  0.89452203  0.71476203  0.25063885  1
  Ti  Ti28  1  0.50609281  0.49191070  0.24808108  1
  Ti  Ti29  1  0.70010098  0.09226492  0.27157441  1
  Ti  Ti30  1  0.60382627  0.77492641  0.50338788  1
  Ti  Ti31  1  0.00241945  0.01613969  0.50061350  1
  Mo  Mo32  1  0.18876445  0.62287513  0.47736612  1
  Mo  Mo33  1  0.42448156  0.16783856  0.99872701  1
  Mo  Mo34  1  0.50324353  0.45975449  0.77930255  1
  Mo  Mo35  1  0.69251313  0.06040892  0.72978048  1
  Au  Au36  1  0.60360799  0.77380525  0.01419911  1
  Au  Au37  1  0.79608327  0.38705199  0.99631393  1
  Au  Au38  1  0.90063813  0.71386146  0.74693212  1
  Au  Au39  1  0.79087019  0.39067947  0.49338388  1
