# generated using pymatgen
data_ZrTaTiNbTcC5
_symmetry_space_group_name_H-M   'P 1'
_cell_length_a   7.06113407
_cell_length_b   7.07977658
_cell_length_c   8.95140984
_cell_angle_alpha   90.00501731
_cell_angle_beta   90.12156035
_cell_angle_gamma   89.89958479
_symmetry_Int_Tables_number   1
_chemical_formula_structural   ZrTaTiNbTcC5
_chemical_formula_sum   'Zr4 Ta4 Ti4 Nb4 Tc4 C20'
_cell_volume   447.49048576
_cell_formula_units_Z   4
loop_
 _symmetry_equiv_pos_site_id
 _symmetry_equiv_pos_as_xyz
  1  'x, y, z'
loop_
 _atom_site_type_symbol
 _atom_site_label
 _atom_site_symmetry_multiplicity
 _atom_site_fract_x
 _atom_site_fract_y
 _atom_site_fract_z
 _atom_site_occupancy
  C  C0  1  0.40808696  0.19901256  0.75409965  1
  C  C1  1  0.49784763  0.49997508  0.00507551  1
  C  C2  1  0.40806185  0.19693811  0.24635316  1
  C  C3  1  0.50552060  0.50893558  0.49902971  1
  C  C4  1  0.60596456  0.79893302  0.74837856  1
  C  C5  1  0.69441853  0.10049162  0.00195949  1
  C  C6  1  0.79217058  0.40722496  0.74698019  1
  C  C7  1  0.89493954  0.68977879  0.99591937  1
  C  C8  1  0.09311192  0.31026317  0.00069354  1
  C  C9  1  0.60094423  0.79892704  0.25535541  1
  C  C10  1  0.70756837  0.09275481  0.49811334  1
  C  C11  1  0.78893114  0.40069363  0.25225028  1
  C  C12  1  0.89577579  0.69634772  0.49900411  1
  C  C13  1  0.00370936  0.00076124  0.74231404  1
  C  C14  1  0.09142800  0.30065650  0.49859329  1
  C  C15  1  0.20183033  0.60643374  0.75136347  1
  C  C16  1  0.30721064  0.89943678  0.99883603  1
  C  C17  1  0.99646186  0.99193038  0.25461501  1
  C  C18  1  0.20342898  0.60462385  0.24877793  1
  C  C19  1  0.30025420  0.89425176  0.50096992  1
  Zr  Zr20  1  0.40674275  0.20129563  0.50093582  1
  Zr  Zr21  1  0.99217970  0.99708513  0.99869173  1
  Zr  Zr22  1  0.10097134  0.29811532  0.25009565  1
  Zr  Zr23  1  0.09047712  0.30621334  0.74892270  1
  Ta  Ta24  1  0.19692208  0.59998417  0.99778272  1
  Ta  Ta25  1  0.30707666  0.89660109  0.24914982  1
  Ta  Ta26  1  0.29627197  0.89939339  0.74779444  1
  Ta  Ta27  1  0.89641767  0.70586645  0.25987877  1
  Ti  Ti28  1  0.49573663  0.50306566  0.25191974  1
  Ti  Ti29  1  0.69738977  0.09095239  0.25040708  1
  Ti  Ti30  1  0.60650528  0.79874311  0.49955879  1
  Ti  Ti31  1  0.99464300  0.00557151  0.50152992  1
  Nb  Nb32  1  0.19599596  0.60352780  0.50437784  1
  Nb  Nb33  1  0.41463446  0.19971504  0.99892747  1
  Nb  Nb34  1  0.52025403  0.50509274  0.75188226  1
  Nb  Nb35  1  0.70217324  0.08542614  0.75046629  1
  Tc  Tc36  1  0.59420697  0.77911875  0.00729984  1
  Tc  Tc37  1  0.79096806  0.42274882  0.02982650  1
  Tc  Tc38  1  0.91047396  0.71803709  0.72925066  1
  Tc  Tc39  1  0.79229430  0.38507610  0.47261994  1
