# generated using pymatgen
data_ZrTaTiNbCrC5
_symmetry_space_group_name_H-M   'P 1'
_cell_length_a   6.99547562
_cell_length_b   7.03210926
_cell_length_c   8.89212682
_cell_angle_alpha   89.95624568
_cell_angle_beta   89.93516943
_cell_angle_gamma   89.97207453
_symmetry_Int_Tables_number   1
_chemical_formula_structural   ZrTaTiNbCrC5
_chemical_formula_sum   'Zr4 Ta4 Ti4 Nb4 Cr4 C20'
_cell_volume   437.42948057
_cell_formula_units_Z   4
loop_
 _symmetry_equiv_pos_site_id
 _symmetry_equiv_pos_as_xyz
  1  'x, y, z'
loop_
 _atom_site_type_symbol
 _atom_site_label
 _atom_site_symmetry_multiplicity
 _atom_site_fract_x
 _atom_site_fract_y
 _atom_site_fract_z
 _atom_site_occupancy
  C  C0  1  0.40635487  0.20048372  0.75374239  1
  C  C1  1  0.50855469  0.50539279  0.00322627  1
  C  C2  1  0.40911269  0.19799391  0.24636683  1
  C  C3  1  0.51057474  0.50743554  0.49720429  1
  C  C4  1  0.60874603  0.79889157  0.75163397  1
  C  C5  1  0.69559916  0.10383518  0.00222003  1
  C  C6  1  0.79257241  0.40852334  0.74606040  1
  C  C7  1  0.88939027  0.68430119  0.99596078  1
  C  C8  1  0.09074331  0.31002981  0.00098533  1
  C  C9  1  0.60099505  0.79901839  0.24866083  1
  C  C10  1  0.70980637  0.10032590  0.49784956  1
  C  C11  1  0.78963883  0.40128478  0.25137145  1
  C  C12  1  0.89431056  0.69350098  0.50418801  1
  C  C13  1  0.00020997  0.99008661  0.74395012  1
  C  C14  1  0.08411801  0.30241507  0.49903209  1
  C  C15  1  0.19217656  0.60895303  0.75085837  1
  C  C16  1  0.31460722  0.89596920  0.99910924  1
  C  C17  1  0.99623343  0.99169984  0.25531628  1
  C  C18  1  0.20271876  0.60492392  0.24937392  1
  C  C19  1  0.30088770  0.89396600  0.50068417  1
  Zr  Zr20  1  0.40544278  0.20149663  0.49976025  1
  Zr  Zr21  1  0.99146745  0.99804202  0.99894451  1
  Zr  Zr22  1  0.09838441  0.29928514  0.25008151  1
  Zr  Zr23  1  0.08909568  0.30466259  0.74921735  1
  Ta  Ta24  1  0.19283480  0.60046653  0.99745078  1
  Ta  Ta25  1  0.30733848  0.89695595  0.24904017  1
  Ta  Ta26  1  0.30381888  0.89857556  0.75121692  1
  Ta  Ta27  1  0.89231180  0.70176260  0.25511299  1
  Ti  Ti28  1  0.50058095  0.50423249  0.25168084  1
  Ti  Ti29  1  0.69984658  0.09683447  0.25033609  1
  Ti  Ti30  1  0.60664296  0.79572192  0.50563312  1
  Ti  Ti31  1  0.99381129  0.99902603  0.50115594  1
  Nb  Nb32  1  0.19330004  0.60152967  0.50408381  1
  Nb  Nb33  1  0.41511182  0.20675119  0.00029517  1
  Nb  Nb34  1  0.51819882  0.50091127  0.75080147  1
  Nb  Nb35  1  0.70370515  0.09693039  0.75013989  1
  Cr  Cr36  1  0.61335063  0.76507398  0.98513917  1
  Cr  Cr37  1  0.79154824  0.41454264  0.03124791  1
  Cr  Cr38  1  0.89023453  0.71840332  0.74860896  1
  Cr  Cr39  1  0.79562409  0.39976485  0.47225883  1
