# generated using pymatgen
data_ZrTaTiMoRuC5
_symmetry_space_group_name_H-M   'P 1'
_cell_length_a   7.01989186
_cell_length_b   7.06111438
_cell_length_c   8.89774373
_cell_angle_alpha   90.02106025
_cell_angle_beta   89.72189375
_cell_angle_gamma   90.27714555
_symmetry_Int_Tables_number   1
_chemical_formula_structural   ZrTaTiMoRuC5
_chemical_formula_sum   'Zr4 Ta4 Ti4 Mo4 Ru4 C20'
_cell_volume   441.03528754
_cell_formula_units_Z   4
loop_
 _symmetry_equiv_pos_site_id
 _symmetry_equiv_pos_as_xyz
  1  'x, y, z'
loop_
 _atom_site_type_symbol
 _atom_site_label
 _atom_site_symmetry_multiplicity
 _atom_site_fract_x
 _atom_site_fract_y
 _atom_site_fract_z
 _atom_site_occupancy
  C  C0  1  0.41375673  0.19607617  0.75445742  1
  C  C1  1  0.50534180  0.50890388  0.99890269  1
  C  C2  1  0.40934744  0.19880523  0.24488899  1
  C  C3  1  0.50064298  0.51115905  0.50663815  1
  C  C4  1  0.60438135  0.79249271  0.75591233  1
  C  C5  1  0.69324859  0.11425070  0.99709207  1
  C  C6  1  0.79229347  0.40435339  0.75147011  1
  C  C7  1  0.87879181  0.69429750  0.98951983  1
  C  C8  1  0.10970709  0.30532354  0.99988301  1
  C  C9  1  0.59597209  0.79611318  0.25859232  1
  C  C10  1  0.70929991  0.09393284  0.50379556  1
  C  C11  1  0.78067692  0.39579380  0.25036846  1
  C  C12  1  0.89436964  0.69989756  0.49626422  1
  C  C13  1  0.00100596  0.00159532  0.74126287  1
  C  C14  1  0.09744139  0.29913258  0.49973262  1
  C  C15  1  0.19589382  0.60531709  0.74919653  1
  C  C16  1  0.30074765  0.90153103  0.99852018  1
  C  C17  1  0.99495079  0.99282522  0.25457870  1
  C  C18  1  0.19758922  0.60493302  0.24818109  1
  C  C19  1  0.29626248  0.89053565  0.49919036  1
  Zr  Zr20  1  0.40988801  0.20635256  0.50300159  1
  Zr  Zr21  1  0.98658309  0.99872656  0.99719231  1
  Zr  Zr22  1  0.09829222  0.30191356  0.25017945  1
  Zr  Zr23  1  0.09246076  0.30722059  0.75020950  1
  Ta  Ta24  1  0.20796561  0.59940307  0.99544983  1
  Ta  Ta25  1  0.30088810  0.89663943  0.25203824  1
  Ta  Ta26  1  0.28805947  0.89880433  0.74376934  1
  Ta  Ta27  1  0.88832019  0.69779429  0.24728483  1
  Ti  Ti28  1  0.50261222  0.49610415  0.24097701  1
  Ti  Ti29  1  0.69854547  0.10099294  0.25345083  1
  Ti  Ti30  1  0.59861114  0.78669845  0.49333841  1
  Ti  Ti31  1  0.99204945  0.00232471  0.50174487  1
  Mo  Mo32  1  0.17591614  0.60244933  0.51061389  1
  Mo  Mo33  1  0.41273228  0.17658891  0.99299713  1
  Mo  Mo34  1  0.53650994  0.48919373  0.75744371  1
  Mo  Mo35  1  0.69499039  0.06245324  0.75047702  1
  Ru  Ru36  1  0.59630202  0.82332155  0.02221195  1
  Ru  Ru37  1  0.81882367  0.41734976  0.01283491  1
  Ru  Ru38  1  0.90881740  0.72355411  0.73638336  1
  Ru  Ru39  1  0.81991130  0.40484527  0.48995430  1
