# generated using pymatgen
data_ZrTaTiMoRhC5
_symmetry_space_group_name_H-M   'P 1'
_cell_length_a   7.01394956
_cell_length_b   7.05397852
_cell_length_c   8.96851056
_cell_angle_alpha   90.12956921
_cell_angle_beta   90.41014810
_cell_angle_gamma   90.30197959
_symmetry_Int_Tables_number   1
_chemical_formula_structural   ZrTaTiMoRhC5
_chemical_formula_sum   'Zr4 Ta4 Ti4 Mo4 Rh4 C20'
_cell_volume   443.70956211
_cell_formula_units_Z   4
loop_
 _symmetry_equiv_pos_site_id
 _symmetry_equiv_pos_as_xyz
  1  'x, y, z'
loop_
 _atom_site_type_symbol
 _atom_site_label
 _atom_site_symmetry_multiplicity
 _atom_site_fract_x
 _atom_site_fract_y
 _atom_site_fract_z
 _atom_site_occupancy
  C  C0  1  0.41523814  0.19927474  0.75584251  1
  C  C1  1  0.50592660  0.50458724  0.99917889  1
  C  C2  1  0.41054579  0.19734872  0.24475225  1
  C  C3  1  0.50375612  0.51193741  0.50669506  1
  C  C4  1  0.59934910  0.79928943  0.75869648  1
  C  C5  1  0.68817772  0.10701291  0.99815819  1
  C  C6  1  0.79154328  0.40697011  0.74679085  1
  C  C7  1  0.88175187  0.69153781  0.99499095  1
  C  C8  1  0.10954981  0.30509753  0.99676698  1
  C  C9  1  0.59846860  0.79550779  0.26257027  1
  C  C10  1  0.71046738  0.09562230  0.50209690  1
  C  C11  1  0.78228821  0.39901184  0.24651569  1
  C  C12  1  0.90669596  0.70019679  0.50100031  1
  C  C13  1  0.99862933  0.00170839  0.73905475  1
  C  C14  1  0.10076957  0.30022234  0.49743173  1
  C  C15  1  0.19640063  0.61013233  0.74851029  1
  C  C16  1  0.29973889  0.90170616  0.99790796  1
  C  C17  1  0.99361478  0.99359794  0.25246569  1
  C  C18  1  0.19917074  0.60253366  0.24655535  1
  C  C19  1  0.29752626  0.89260918  0.49788585  1
  Zr  Zr20  1  0.41055579  0.20819895  0.50380796  1
  Zr  Zr21  1  0.98305776  0.00234109  0.99569560  1
  Zr  Zr22  1  0.09581306  0.30064548  0.24675274  1
  Zr  Zr23  1  0.09399362  0.31659046  0.74825506  1
  Ta  Ta24  1  0.20490405  0.60127819  0.00420925  1
  Ta  Ta25  1  0.30168217  0.89818001  0.25439790  1
  Ta  Ta26  1  0.28240551  0.89807962  0.74188222  1
  Ta  Ta27  1  0.88863879  0.69655462  0.25106362  1
  Ti  Ti28  1  0.50227159  0.49658448  0.24789979  1
  Ti  Ti29  1  0.70033920  0.10004237  0.26023247  1
  Ti  Ti30  1  0.60481876  0.78512123  0.50159875  1
  Ti  Ti31  1  0.99738385  0.00828066  0.49931732  1
  Mo  Mo32  1  0.18282107  0.60362617  0.48450810  1
  Mo  Mo33  1  0.41620058  0.17120424  0.99508058  1
  Mo  Mo34  1  0.53546369  0.49939243  0.76453883  1
  Mo  Mo35  1  0.69553094  0.06422146  0.73630180  1
  Rh  Rh36  1  0.59280207  0.80235708  0.02174144  1
  Rh  Rh37  1  0.80964857  0.40985372  0.00234590  1
  Rh  Rh38  1  0.89719667  0.71912408  0.75558607  1
  Rh  Rh39  1  0.81486348  0.40241903  0.49091763  1
