# generated using pymatgen
data_ZrTaTiTcMoC5
_symmetry_space_group_name_H-M   'P 1'
_cell_length_a   7.04350564
_cell_length_b   7.04523414
_cell_length_c   8.91881085
_cell_angle_alpha   90.10236589
_cell_angle_beta   89.73312423
_cell_angle_gamma   89.92543540
_symmetry_Int_Tables_number   1
_chemical_formula_structural   ZrTaTiTcMoC5
_chemical_formula_sum   'Zr4 Ta4 Ti4 Tc4 Mo4 C20'
_cell_volume   442.57356936
_cell_formula_units_Z   4
loop_
 _symmetry_equiv_pos_site_id
 _symmetry_equiv_pos_as_xyz
  1  'x, y, z'
loop_
 _atom_site_type_symbol
 _atom_site_label
 _atom_site_symmetry_multiplicity
 _atom_site_fract_x
 _atom_site_fract_y
 _atom_site_fract_z
 _atom_site_occupancy
  C  C0  1  0.40999656  0.19775390  0.75645522  1
  C  C1  1  0.50668095  0.50123897  0.00391733  1
  C  C2  1  0.40958685  0.19810534  0.24626152  1
  C  C3  1  0.50364042  0.50947593  0.50313415  1
  C  C4  1  0.60288957  0.79308849  0.75235280  1
  C  C5  1  0.69357657  0.10479481  0.99910428  1
  C  C6  1  0.78719454  0.40646896  0.75135059  1
  C  C7  1  0.89320086  0.68984055  0.99437463  1
  C  C8  1  0.10309277  0.30870565  0.99954088  1
  C  C9  1  0.60018144  0.80024117  0.25960569  1
  C  C10  1  0.70846446  0.10008055  0.50108990  1
  C  C11  1  0.79006541  0.39959805  0.24968229  1
  C  C12  1  0.89319981  0.70156854  0.49679195  1
  C  C13  1  0.99986755  0.99907318  0.74177331  1
  C  C14  1  0.09052611  0.30169213  0.49901092  1
  C  C15  1  0.19649806  0.60540191  0.74971019  1
  C  C16  1  0.30691769  0.89844981  0.99742358  1
  C  C17  1  0.99866692  0.99288551  0.25417288  1
  C  C18  1  0.20393604  0.60493197  0.24973279  1
  C  C19  1  0.29743495  0.89140286  0.49996310  1
  Zr  Zr20  1  0.40829212  0.20486105  0.50416817  1
  Zr  Zr21  1  0.98895524  0.99778019  0.99683882  1
  Zr  Zr22  1  0.10523651  0.29971878  0.24689323  1
  Zr  Zr23  1  0.08890424  0.30801625  0.75181480  1
  Ta  Ta24  1  0.22069279  0.59883838  0.99549970  1
  Ta  Ta25  1  0.30484830  0.89722330  0.25291189  1
  Ta  Ta26  1  0.28740312  0.89845542  0.74205113  1
  Ta  Ta27  1  0.89677635  0.70493737  0.25189150  1
  Ti  Ti28  1  0.49669877  0.50362743  0.25561538  1
  Ti  Ti29  1  0.69756609  0.09224325  0.25340624  1
  Ti  Ti30  1  0.60403472  0.79194810  0.49520873  1
  Ti  Ti31  1  0.99153185  0.00712449  0.50215507  1
  Mo  Mo32  1  0.17213508  0.60137624  0.50950271  1
  Mo  Mo33  1  0.41457463  0.16884269  0.99235353  1
  Mo  Mo34  1  0.53345187  0.50654007  0.74178534  1
  Mo  Mo35  1  0.69456286  0.06509139  0.75134848  1
  Tc  Tc36  1  0.59922202  0.80367988  0.02158401  1
  Tc  Tc37  1  0.78366671  0.42645299  0.02751643  1
  Tc  Tc38  1  0.90823436  0.71689053  0.73141299  1
  Tc  Tc39  1  0.80759484  0.40155391  0.47059387  1
