# generated using pymatgen
data_ZrTaTiMoPtC5
_symmetry_space_group_name_H-M   'P 1'
_cell_length_a   7.03021454
_cell_length_b   7.09151438
_cell_length_c   9.03813416
_cell_angle_alpha   89.83313334
_cell_angle_beta   90.78598359
_cell_angle_gamma   89.23153098
_symmetry_Int_Tables_number   1
_chemical_formula_structural   ZrTaTiMoPtC5
_chemical_formula_sum   'Zr4 Ta4 Ti4 Mo4 Pt4 C20'
_cell_volume   450.50989939
_cell_formula_units_Z   4
loop_
 _symmetry_equiv_pos_site_id
 _symmetry_equiv_pos_as_xyz
  1  'x, y, z'
loop_
 _atom_site_type_symbol
 _atom_site_label
 _atom_site_symmetry_multiplicity
 _atom_site_fract_x
 _atom_site_fract_y
 _atom_site_fract_z
 _atom_site_occupancy
  C  C0  1  0.40481153  0.19564636  0.75533376  1
  C  C1  1  0.50395264  0.49689610  0.00127162  1
  C  C2  1  0.41021309  0.19666591  0.24519496  1
  C  C3  1  0.50032975  0.50920841  0.50812411  1
  C  C4  1  0.61224616  0.80751905  0.76112814  1
  C  C5  1  0.68511165  0.10810481  0.99942563  1
  C  C6  1  0.78605222  0.43719160  0.74174144  1
  C  C7  1  0.88890620  0.68942124  0.98880587  1
  C  C8  1  0.10634692  0.30611483  0.99585365  1
  C  C9  1  0.60108028  0.79802992  0.26790479  1
  C  C10  1  0.70732561  0.08968515  0.50230292  1
  C  C11  1  0.78647591  0.40599107  0.24195518  1
  C  C12  1  0.91241398  0.69155010  0.50087338  1
  C  C13  1  0.00232572  0.01136353  0.73987463  1
  C  C14  1  0.09619017  0.30302780  0.49599076  1
  C  C15  1  0.21873708  0.60836024  0.75003692  1
  C  C16  1  0.29737367  0.90052173  0.99986122  1
  C  C17  1  0.99341625  0.99518462  0.25284813  1
  C  C18  1  0.20284811  0.60409240  0.24619958  1
  C  C19  1  0.30023180  0.89422388  0.50007759  1
  Zr  Zr20  1  0.40526070  0.20129723  0.49999683  1
  Zr  Zr21  1  0.98118184  0.00517574  0.99438099  1
  Zr  Zr22  1  0.09387645  0.30254920  0.24677811  1
  Zr  Zr23  1  0.08585894  0.32319443  0.74453887  1
  Ta  Ta24  1  0.19779347  0.60367797  0.00676458  1
  Ta  Ta25  1  0.30273688  0.89768471  0.25465981  1
  Ta  Ta26  1  0.29200549  0.90596856  0.74562046  1
  Ta  Ta27  1  0.89110621  0.70144940  0.26474171  1
  Ti  Ti28  1  0.50206459  0.49880488  0.24364460  1
  Ti  Ti29  1  0.69996076  0.09840576  0.26209112  1
  Ti  Ti30  1  0.60749658  0.78466407  0.51038422  1
  Ti  Ti31  1  0.00152095  0.01149952  0.50182149  1
  Mo  Mo32  1  0.21733123  0.60509855  0.48067410  1
  Mo  Mo33  1  0.41056170  0.17093931  0.99930599  1
  Mo  Mo34  1  0.50373611  0.46610473  0.77679688  1
  Mo  Mo35  1  0.69109062  0.07486525  0.73374854  1
  Pt  Pt36  1  0.59428278  0.79433987  0.01456969  1
  Pt  Pt37  1  0.80526824  0.39654613  0.99269634  1
  Pt  Pt38  1  0.90619487  0.71590845  0.74343294  1
  Pt  Pt39  1  0.79428285  0.39302750  0.48854849  1
