# generated using pymatgen
data_ZrTaTiMnMoC5
_symmetry_space_group_name_H-M   'P 1'
_cell_length_a   6.97104565
_cell_length_b   6.99621998
_cell_length_c   8.86493813
_cell_angle_alpha   90.20591040
_cell_angle_beta   89.99009432
_cell_angle_gamma   89.90350211
_symmetry_Int_Tables_number   1
_chemical_formula_structural   ZrTaTiMnMoC5
_chemical_formula_sum   'Zr4 Ta4 Ti4 Mn4 Mo4 C20'
_cell_volume   432.34820947
_cell_formula_units_Z   4
loop_
 _symmetry_equiv_pos_site_id
 _symmetry_equiv_pos_as_xyz
  1  'x, y, z'
loop_
 _atom_site_type_symbol
 _atom_site_label
 _atom_site_symmetry_multiplicity
 _atom_site_fract_x
 _atom_site_fract_y
 _atom_site_fract_z
 _atom_site_occupancy
  C  C0  1  0.41049742  0.19837604  0.75648586  1
  C  C1  1  0.51462626  0.50617019  0.00444248  1
  C  C2  1  0.40906606  0.19843628  0.24483413  1
  C  C3  1  0.51213390  0.50847302  0.50361565  1
  C  C4  1  0.61173166  0.79377782  0.75275897  1
  C  C5  1  0.69002369  0.09152093  0.99941541  1
  C  C6  1  0.79020269  0.41341104  0.76418202  1
  C  C7  1  0.88370906  0.68699891  0.99797556  1
  C  C8  1  0.09511655  0.30937762  0.99873863  1
  C  C9  1  0.60004672  0.80060532  0.25525370  1
  C  C10  1  0.71034371  0.10522934  0.50049099  1
  C  C11  1  0.78915821  0.40065976  0.24762151  1
  C  C12  1  0.89123329  0.69491245  0.50170920  1
  C  C13  1  0.99691108  0.99067988  0.74057895  1
  C  C14  1  0.08030763  0.30607735  0.49793473  1
  C  C15  1  0.18491139  0.60844768  0.74886500  1
  C  C16  1  0.31759055  0.89502637  0.99837075  1
  C  C17  1  0.99746100  0.99267856  0.25406867  1
  C  C18  1  0.20484814  0.60371129  0.24957825  1
  C  C19  1  0.29789692  0.89250169  0.49943724  1
  Zr  Zr20  1  0.40859851  0.20800599  0.50432105  1
  Zr  Zr21  1  0.98631549  0.99244542  0.99687462  1
  Zr  Zr22  1  0.10145474  0.30056957  0.24476721  1
  Zr  Zr23  1  0.08670660  0.30741438  0.75226808  1
  Ta  Ta24  1  0.22117719  0.59785029  0.99588537  1
  Ta  Ta25  1  0.30396091  0.89743855  0.25437428  1
  Ta  Ta26  1  0.28734856  0.89748662  0.74181966  1
  Ta  Ta27  1  0.89616847  0.70282106  0.25363634  1
  Ti  Ti28  1  0.49970955  0.50229689  0.25377949  1
  Ti  Ti29  1  0.69909431  0.09557877  0.25377927  1
  Ti  Ti30  1  0.60370680  0.79076116  0.49625938  1
  Ti  Ti31  1  0.99199120  0.00473884  0.50074672  1
  Mo  Mo32  1  0.17246992  0.60006300  0.50753578  1
  Mo  Mo33  1  0.41879896  0.16763899  0.99336565  1
  Mo  Mo34  1  0.53852693  0.50719321  0.74864120  1
  Mo  Mo35  1  0.69614839  0.06524281  0.74379348  1
  Mn  Mn36  1  0.59912278  0.78908100  0.02690147  1
  Mn  Mn37  1  0.78134627  0.44302107  0.02880042  1
  Mn  Mn38  1  0.90648793  0.72131920  0.72349026  1
  Mn  Mn39  1  0.81305054  0.41196163  0.46260260  1
