# generated using pymatgen
data_ZrTaTiCrMoC5
_symmetry_space_group_name_H-M   'P 1'
_cell_length_a   6.97727134
_cell_length_b   6.99398673
_cell_length_c   8.85085829
_cell_angle_alpha   90.13370150
_cell_angle_beta   89.96604560
_cell_angle_gamma   89.97050163
_symmetry_Int_Tables_number   1
_chemical_formula_structural   ZrTaTiCrMoC5
_chemical_formula_sum   'Zr4 Ta4 Ti4 Cr4 Mo4 C20'
_cell_volume   431.91122103
_cell_formula_units_Z   4
loop_
 _symmetry_equiv_pos_site_id
 _symmetry_equiv_pos_as_xyz
  1  'x, y, z'
loop_
 _atom_site_type_symbol
 _atom_site_label
 _atom_site_symmetry_multiplicity
 _atom_site_fract_x
 _atom_site_fract_y
 _atom_site_fract_z
 _atom_site_occupancy
  C  C0  1  0.40816296  0.19931619  0.75684374  1
  C  C1  1  0.51176088  0.50219683  0.00432637  1
  C  C2  1  0.40981175  0.19886727  0.24514448  1
  C  C3  1  0.51153802  0.50911272  0.50361693  1
  C  C4  1  0.60798696  0.79427457  0.75213478  1
  C  C5  1  0.69168779  0.09868520  0.00048423  1
  C  C6  1  0.78871326  0.41121905  0.75383717  1
  C  C7  1  0.88779742  0.68535619  0.99972190  1
  C  C8  1  0.09147531  0.30960292  0.99928171  1
  C  C9  1  0.60101855  0.80022612  0.25091350  1
  C  C10  1  0.71039407  0.10673973  0.50046515  1
  C  C11  1  0.79170840  0.40226275  0.24993970  1
  C  C12  1  0.89322139  0.69693616  0.50306403  1
  C  C13  1  0.99660192  0.98850123  0.74106217  1
  C  C14  1  0.08149251  0.30467637  0.49870368  1
  C  C15  1  0.18820907  0.60724942  0.74914845  1
  C  C16  1  0.31493777  0.89790758  0.99810730  1
  C  C17  1  0.99872002  0.99331746  0.25459104  1
  C  C18  1  0.20518388  0.60430910  0.24954253  1
  C  C19  1  0.29904291  0.89336665  0.49970589  1
  Zr  Zr20  1  0.40741472  0.20753061  0.50452143  1
  Zr  Zr21  1  0.98756947  0.99379724  0.99748303  1
  Zr  Zr22  1  0.10175889  0.30083411  0.24654604  1
  Zr  Zr23  1  0.08583892  0.30731574  0.75152996  1
  Ta  Ta24  1  0.21369887  0.59916999  0.99631698  1
  Ta  Ta25  1  0.30596734  0.89773945  0.25315882  1
  Ta  Ta26  1  0.28905522  0.89706965  0.74333115  1
  Ta  Ta27  1  0.89639409  0.70201073  0.25468609  1
  Ti  Ti28  1  0.50086265  0.50176637  0.25137568  1
  Ti  Ti29  1  0.69979080  0.09766673  0.25291129  1
  Ti  Ti30  1  0.60603949  0.79255646  0.49741482  1
  Ti  Ti31  1  0.99285487  0.00638252  0.50045850  1
  Mo  Mo32  1  0.17788595  0.60181919  0.50695734  1
  Mo  Mo33  1  0.41889586  0.17539278  0.99362112  1
  Mo  Mo34  1  0.53503247  0.51082196  0.75287898  1
  Mo  Mo35  1  0.69666035  0.06746144  0.74784526  1
  Cr  Cr36  1  0.60208979  0.78701326  0.01414202  1
  Cr  Cr37  1  0.78700523  0.43116380  0.02736515  1
  Cr  Cr38  1  0.90053067  0.71446310  0.72760633  1
  Cr  Cr39  1  0.80518954  0.40390135  0.46921525  1
