# generated using pymatgen
data_ZrTaTiMnNbC5
_symmetry_space_group_name_H-M   'P 1'
_cell_length_a   6.98397414
_cell_length_b   7.03146404
_cell_length_c   8.90921599
_cell_angle_alpha   89.91004138
_cell_angle_beta   90.09673624
_cell_angle_gamma   90.07498483
_symmetry_Int_Tables_number   1
_chemical_formula_structural   ZrTaTiMnNbC5
_chemical_formula_sum   'Zr4 Ta4 Ti4 Mn4 Nb4 C20'
_cell_volume   437.50834974
_cell_formula_units_Z   4
loop_
 _symmetry_equiv_pos_site_id
 _symmetry_equiv_pos_as_xyz
  1  'x, y, z'
loop_
 _atom_site_type_symbol
 _atom_site_label
 _atom_site_symmetry_multiplicity
 _atom_site_fract_x
 _atom_site_fract_y
 _atom_site_fract_z
 _atom_site_occupancy
  C  C0  1  0.40857444  0.19978774  0.75461867  1
  C  C1  1  0.51219227  0.50876479  0.00452997  1
  C  C2  1  0.40934752  0.19781098  0.24576529  1
  C  C3  1  0.51254375  0.50755654  0.49828732  1
  C  C4  1  0.61433723  0.79598434  0.75273920  1
  C  C5  1  0.69199821  0.09088615  0.00128012  1
  C  C6  1  0.79466095  0.40968420  0.75895934  1
  C  C7  1  0.88577971  0.68179549  0.00271457  1
  C  C8  1  0.09075816  0.31041205  0.00107670  1
  C  C9  1  0.60008231  0.79936520  0.25285548  1
  C  C10  1  0.71051389  0.10255956  0.49768538  1
  C  C11  1  0.78959640  0.40265955  0.24911033  1
  C  C12  1  0.89308826  0.69170969  0.50478201  1
  C  C13  1  0.00029969  0.98944089  0.74186757  1
  C  C14  1  0.08492863  0.30238018  0.49868081  1
  C  C15  1  0.19056537  0.60905956  0.75182815  1
  C  C16  1  0.31035274  0.89709175  0.99932969  1
  C  C17  1  0.99487883  0.99156221  0.25514272  1
  C  C18  1  0.20503108  0.60341748  0.25003894  1
  C  C19  1  0.30109413  0.89446171  0.50114074  1
  Zr  Zr20  1  0.40847064  0.20434001  0.50055411  1
  Zr  Zr21  1  0.99247407  0.98736793  0.99999681  1
  Zr  Zr22  1  0.09817680  0.29888431  0.24851635  1
  Zr  Zr23  1  0.08889036  0.30653959  0.75110713  1
  Ta  Ta24  1  0.20835033  0.59959640  0.99950725  1
  Ta  Ta25  1  0.30706311  0.89639515  0.25346642  1
  Ta  Ta26  1  0.29993789  0.89681308  0.74861097  1
  Ta  Ta27  1  0.89325601  0.70187933  0.26190241  1
  Ti  Ti28  1  0.50050101  0.50529066  0.25158905  1
  Ti  Ti29  1  0.69768445  0.09103476  0.24841114  1
  Ti  Ti30  1  0.60612419  0.79686853  0.50672888  1
  Ti  Ti31  1  0.99429234  0.00572172  0.50050427  1
  Nb  Nb32  1  0.19210063  0.60102963  0.50363419  1
  Nb  Nb33  1  0.41369935  0.19552242  0.99966508  1
  Nb  Nb34  1  0.52400242  0.50241874  0.75433511  1
  Nb  Nb35  1  0.70372393  0.08786726  0.75220198  1
  Mn  Mn36  1  0.57931958  0.79232678  0.98144840  1
  Mn  Mn37  1  0.79779364  0.43491618  0.02901030  1
  Mn  Mn38  1  0.90017132  0.71871899  0.72238172  1
  Mn  Mn39  1  0.79334436  0.39007846  0.46399545  1
