# generated using pymatgen
data_ZrTaTiReMoC5
_symmetry_space_group_name_H-M   'P 1'
_cell_length_a   7.04655918
_cell_length_b   7.04615139
_cell_length_c   8.92582748
_cell_angle_alpha   90.02360000
_cell_angle_beta   89.65334414
_cell_angle_gamma   89.95051624
_symmetry_Int_Tables_number   1
_chemical_formula_structural   ZrTaTiReMoC5
_chemical_formula_sum   'Zr4 Ta4 Ti4 Re4 Mo4 C20'
_cell_volume   443.16904031
_cell_formula_units_Z   4
loop_
 _symmetry_equiv_pos_site_id
 _symmetry_equiv_pos_as_xyz
  1  'x, y, z'
loop_
 _atom_site_type_symbol
 _atom_site_label
 _atom_site_symmetry_multiplicity
 _atom_site_fract_x
 _atom_site_fract_y
 _atom_site_fract_z
 _atom_site_occupancy
  C  C0  1  0.40948201  0.19915674  0.75649675  1
  C  C1  1  0.50744392  0.50364182  0.00414046  1
  C  C2  1  0.40997082  0.19839762  0.24673671  1
  C  C3  1  0.50384499  0.50890831  0.50181190  1
  C  C4  1  0.60266864  0.79149091  0.75502288  1
  C  C5  1  0.69644603  0.10906466  0.99955617  1
  C  C6  1  0.78842673  0.40652259  0.74999717  1
  C  C7  1  0.88941403  0.68917022  0.99086530  1
  C  C8  1  0.10135118  0.30967069  0.99989269  1
  C  C9  1  0.60094702  0.79972545  0.25834311  1
  C  C10  1  0.70873547  0.10250607  0.50150866  1
  C  C11  1  0.79081198  0.39811396  0.25058576  1
  C  C12  1  0.89130351  0.70110399  0.49677176  1
  C  C13  1  0.00125778  0.99828767  0.74186782  1
  C  C14  1  0.08971785  0.29943551  0.49902197  1
  C  C15  1  0.19541274  0.60544747  0.75056544  1
  C  C16  1  0.30422837  0.89882538  0.99686281  1
  C  C17  1  0.99891043  0.99239646  0.25441892  1
  C  C18  1  0.20390662  0.60499404  0.24941575  1
  C  C19  1  0.29838901  0.89079190  0.50033855  1
  Zr  Zr20  1  0.40699594  0.20389270  0.50395617  1
  Zr  Zr21  1  0.99141525  0.99727224  0.99699496  1
  Zr  Zr22  1  0.10599880  0.29916933  0.24756898  1
  Zr  Zr23  1  0.08892764  0.30648898  0.75139794  1
  Ta  Ta24  1  0.22321111  0.59783487  0.99605979  1
  Ta  Ta25  1  0.30576770  0.89744874  0.25185134  1
  Ta  Ta26  1  0.29176275  0.89747752  0.74270358  1
  Ta  Ta27  1  0.89713439  0.70442839  0.25176496  1
  Ti  Ti28  1  0.49684990  0.50328715  0.25665250  1
  Ti  Ti29  1  0.69777659  0.09216169  0.25253686  1
  Ti  Ti30  1  0.60419679  0.79315345  0.49477015  1
  Ti  Ti31  1  0.99230758  0.00532028  0.50200644  1
  Mo  Mo32  1  0.17226248  0.60093680  0.50905125  1
  Mo  Mo33  1  0.41298841  0.17211463  0.99290965  1
  Mo  Mo34  1  0.53109185  0.50418785  0.73806739  1
  Mo  Mo35  1  0.69400698  0.06708067  0.75504554  1
  Re  Re36  1  0.59685030  0.81476317  0.01991814  1
  Re  Re37  1  0.78363988  0.41866164  0.02776828  1
  Re  Re38  1  0.90739737  0.71758389  0.73248138  1
  Re  Re39  1  0.80674914  0.39908453  0.47227412  1
