# generated using pymatgen
data_ZrTaTiMoOsC5
_symmetry_space_group_name_H-M   'P 1'
_cell_length_a   7.01806894
_cell_length_b   7.04798663
_cell_length_c   8.93697633
_cell_angle_alpha   90.09329753
_cell_angle_beta   90.96868858
_cell_angle_gamma   90.00389454
_symmetry_Int_Tables_number   1
_chemical_formula_structural   ZrTaTiMoOsC5
_chemical_formula_sum   'Zr4 Ta4 Ti4 Mo4 Os4 C20'
_cell_volume   441.98818376
_cell_formula_units_Z   4
loop_
 _symmetry_equiv_pos_site_id
 _symmetry_equiv_pos_as_xyz
  1  'x, y, z'
loop_
 _atom_site_type_symbol
 _atom_site_label
 _atom_site_symmetry_multiplicity
 _atom_site_fract_x
 _atom_site_fract_y
 _atom_site_fract_z
 _atom_site_occupancy
  C  C0  1  0.40836607  0.20925072  0.75770632  1
  C  C1  1  0.50667129  0.49945244  0.00356413  1
  C  C2  1  0.40812428  0.19446147  0.24382978  1
  C  C3  1  0.51058170  0.50745821  0.49727843  1
  C  C4  1  0.61345700  0.80989286  0.76043567  1
  C  C5  1  0.68116181  0.09940847  0.99841289  1
  C  C6  1  0.79897480  0.42757935  0.75018813  1
  C  C7  1  0.87740157  0.68208489  0.99140702  1
  C  C8  1  0.10734612  0.29801771  0.99886651  1
  C  C9  1  0.60171779  0.79644841  0.25436283  1
  C  C10  1  0.70888207  0.09394005  0.50376157  1
  C  C11  1  0.78824300  0.40300670  0.24017043  1
  C  C12  1  0.90151936  0.68992841  0.50201737  1
  C  C13  1  0.00138882  0.00238281  0.74152618  1
  C  C14  1  0.09163736  0.30603595  0.49766174  1
  C  C15  1  0.20745337  0.60841321  0.74976458  1
  C  C16  1  0.28628895  0.89516367  0.00044596  1
  C  C17  1  0.99347636  0.99082007  0.25534114  1
  C  C18  1  0.20401185  0.60006569  0.24883223  1
  C  C19  1  0.30532097  0.89222180  0.50179751  1
  Zr  Zr20  1  0.40636879  0.19759104  0.50038614  1
  Zr  Zr21  1  0.98050114  0.99180657  0.99530118  1
  Zr  Zr22  1  0.09695894  0.29724607  0.25080180  1
  Zr  Zr23  1  0.10071584  0.31000164  0.74553449  1
  Ta  Ta24  1  0.18125253  0.60195450  0.00272688  1
  Ta  Ta25  1  0.30574135  0.89304433  0.25176780  1
  Ta  Ta26  1  0.30608255  0.89225966  0.75028286  1
  Ta  Ta27  1  0.89236322  0.69877993  0.27027803  1
  Ti  Ti28  1  0.50686634  0.49732615  0.24174280  1
  Ti  Ti29  1  0.69709583  0.09752196  0.24999740  1
  Ti  Ti30  1  0.61373422  0.81042625  0.50809741  1
  Ti  Ti31  1  0.99482249  0.00204013  0.50469949  1
  Mo  Mo32  1  0.24348707  0.59628640  0.49661224  1
  Mo  Mo33  1  0.39293848  0.16929029  0.99838422  1
  Mo  Mo34  1  0.52300275  0.50380058  0.78249161  1
  Mo  Mo35  1  0.70006923  0.13795818  0.75655434  1
  Os  Os36  1  0.57605058  0.80321034  0.99879295  1
  Os  Os37  1  0.81530444  0.38352836  0.99180631  1
  Os  Os38  1  0.88726097  0.72554164  0.72707508  1
  Os  Os39  1  0.77735872  0.38435309  0.47929657  1
