# generated using pymatgen
data_ZrTaTiMnFeC5
_symmetry_space_group_name_H-M   'P 1'
_cell_length_a   6.86579464
_cell_length_b   6.89549504
_cell_length_c   8.69709503
_cell_angle_alpha   89.88320030
_cell_angle_beta   90.60624193
_cell_angle_gamma   88.80800440
_symmetry_Int_Tables_number   1
_chemical_formula_structural   ZrTaTiMnFeC5
_chemical_formula_sum   'Zr4 Ta4 Ti4 Mn4 Fe4 C20'
_cell_volume   411.63383332
_cell_formula_units_Z   4
loop_
 _symmetry_equiv_pos_site_id
 _symmetry_equiv_pos_as_xyz
  1  'x, y, z'
loop_
 _atom_site_type_symbol
 _atom_site_label
 _atom_site_symmetry_multiplicity
 _atom_site_fract_x
 _atom_site_fract_y
 _atom_site_fract_z
 _atom_site_occupancy
  C  C0  1  0.42037167  0.20999112  0.77477045  1
  C  C1  1  0.51761076  0.49145540  0.99719570  1
  C  C2  1  0.40906708  0.19687424  0.24482333  1
  C  C3  1  0.51003088  0.50692268  0.51115653  1
  C  C4  1  0.61088852  0.78656792  0.75790030  1
  C  C5  1  0.66297231  0.11046883  0.97893445  1
  C  C6  1  0.76834378  0.41484577  0.74215152  1
  C  C7  1  0.89032908  0.68189377  0.99283062  1
  C  C8  1  0.08773084  0.31236114  0.99527966  1
  C  C9  1  0.60412502  0.79567650  0.25427663  1
  C  C10  1  0.71187934  0.10849759  0.50387510  1
  C  C11  1  0.78770182  0.39663061  0.24894648  1
  C  C12  1  0.91308413  0.68329425  0.51651799  1
  C  C13  1  0.98526827  0.99679875  0.74241853  1
  C  C14  1  0.07793663  0.31644283  0.49625983  1
  C  C15  1  0.20121311  0.61444304  0.74067828  1
  C  C16  1  0.32269761  0.89874068  0.99938153  1
  C  C17  1  0.99597251  0.98961442  0.25366300  1
  C  C18  1  0.21062912  0.60144881  0.24997587  1
  C  C19  1  0.30471208  0.89088852  0.50378960  1
  Zr  Zr20  1  0.40344273  0.20837841  0.50992119  1
  Zr  Zr21  1  0.97072696  0.00465487  0.99116636  1
  Zr  Zr22  1  0.10158984  0.29749536  0.24604977  1
  Zr  Zr23  1  0.08382955  0.32022221  0.74570745  1
  Ta  Ta24  1  0.21552815  0.60026744  0.99539968  1
  Ta  Ta25  1  0.30871571  0.89699188  0.25351888  1
  Ta  Ta26  1  0.31102484  0.89820695  0.75297257  1
  Ta  Ta27  1  0.90147422  0.69783933  0.26184075  1
  Ti  Ti28  1  0.50127951  0.50096290  0.25688976  1
  Ti  Ti29  1  0.69224157  0.09282950  0.24692909  1
  Ti  Ti30  1  0.61145483  0.78678185  0.51585170  1
  Ti  Ti31  1  0.99799843  0.99250654  0.50549564  1
  Fe  Fe32  1  0.20797764  0.61385348  0.49125362  1
  Fe  Fe33  1  0.39352862  0.17009710  0.99920736  1
  Fe  Fe34  1  0.50836580  0.48566106  0.75675184  1
  Fe  Fe35  1  0.71793515  0.14958269  0.73497275  1
  Mn  Mn36  1  0.61273615  0.75715114  0.97471201  1
  Mn  Mn37  1  0.78749412  0.42331596  0.03008649  1
  Mn  Mn38  1  0.88527765  0.72216083  0.75535999  1
  Mn  Mn39  1  0.79481400  0.37718364  0.47108771  1
