# generated using pymatgen
data_Fe2CuO4
_symmetry_space_group_name_H-M   'P 1'
_cell_length_a   8.46432947
_cell_length_b   8.46432947
_cell_length_c   8.46432947
_cell_angle_alpha   90.00000000
_cell_angle_beta   90.00000000
_cell_angle_gamma   90.00000000
_symmetry_Int_Tables_number   1
_chemical_formula_structural   Fe2CuO4
_chemical_formula_sum   'Fe16 Cu8 O32'
_cell_volume   606.42581310
_cell_formula_units_Z   8
loop_
 _symmetry_equiv_pos_site_id
 _symmetry_equiv_pos_as_xyz
  1  'x, y, z'
loop_
 _atom_site_type_symbol
 _atom_site_label
 _atom_site_symmetry_multiplicity
 _atom_site_fract_x
 _atom_site_fract_y
 _atom_site_fract_z
 _atom_site_occupancy
  Cu  Cu0  1  0.00000007  -0.00000006  -0.00000015  1
  Cu  Cu1  1  0.00000007  0.49999994  0.49999985  1
  Cu  Cu2  1  0.50000007  0.49999994  -0.00000015  1
  Cu  Cu3  1  0.50000007  -0.00000006  0.49999985  1
  Cu  Cu4  1  0.74999993  0.25000006  0.75000015  1
  Cu  Cu5  1  0.24999993  0.25000006  0.25000015  1
  Cu  Cu6  1  0.24999993  0.75000006  0.75000015  1
  Cu  Cu7  1  0.74999993  0.75000006  0.25000015  1
  Fe  Fe8  1  0.62500000  0.62500000  0.62500000  1
  Fe  Fe9  1  0.37500000  0.87500000  0.12500000  1
  Fe  Fe10  1  0.87500000  0.12500000  0.37500000  1
  Fe  Fe11  1  0.12500000  0.37500000  0.87500000  1
  Fe  Fe12  1  0.87500000  0.37500000  0.12500000  1
  Fe  Fe13  1  0.37500000  0.12500000  0.87500000  1
  Fe  Fe14  1  0.12500000  0.87500000  0.37500000  1
  Fe  Fe15  1  0.62500000  0.12500000  0.12500000  1
  Fe  Fe16  1  0.37500000  0.37500000  0.62500000  1
  Fe  Fe17  1  0.87500000  0.62500000  0.87500000  1
  Fe  Fe18  1  0.87500000  0.87500000  0.62500000  1
  Fe  Fe19  1  0.37500000  0.62500000  0.37500000  1
  Fe  Fe20  1  0.12500000  0.62500000  0.12500000  1
  Fe  Fe21  1  0.62500000  0.37500000  0.37500000  1
  Fe  Fe22  1  0.62500000  0.87500000  0.87500000  1
  Fe  Fe23  1  0.12500000  0.12500000  0.62500000  1
  O  O24  1  0.38656484  0.38656520  0.38656459  1
  O  O25  1  0.61343468  0.11343503  0.88656435  1
  O  O26  1  0.11343500  0.88656463  0.61343484  1
  O  O27  1  0.88656452  0.61343508  0.11343455  1
  O  O28  1  0.13656532  0.63656497  0.36343565  1
  O  O29  1  0.86343516  0.86343480  0.86343541  1
  O  O30  1  0.63656500  0.36343537  0.13656516  1
  O  O31  1  0.36343548  0.13656492  0.63656545  1
  O  O32  1  0.63656532  0.13656497  0.36343565  1
  O  O33  1  0.13656500  0.36343537  0.63656516  1
  O  O34  1  0.36343548  0.63656492  0.13656545  1
  O  O35  1  0.11343468  0.61343503  0.88656435  1
  O  O36  1  0.61343500  0.88656463  0.11343484  1
  O  O37  1  0.88656452  0.11343508  0.61343455  1
  O  O38  1  0.38656484  0.88656520  0.88656459  1
  O  O39  1  0.61343468  0.61343503  0.38656435  1
  O  O40  1  0.11343500  0.38656463  0.11343484  1
  O  O41  1  0.13656532  0.13656497  0.86343565  1
  O  O42  1  0.86343516  0.36343480  0.36343541  1
  O  O43  1  0.63656500  0.86343537  0.63656516  1
  O  O44  1  0.63656532  0.63656497  0.86343565  1
  O  O45  1  0.13656500  0.86343537  0.13656516  1
  O  O46  1  0.11343468  0.11343503  0.38656435  1
  O  O47  1  0.61343500  0.38656463  0.61343484  1
  O  O48  1  0.88656484  0.38656520  0.88656459  1
  O  O49  1  0.38656452  0.61343508  0.61343455  1
  O  O50  1  0.36343516  0.86343480  0.36343541  1
  O  O51  1  0.86343548  0.13656492  0.13656545  1
  O  O52  1  0.86343548  0.63656492  0.63656545  1
  O  O53  1  0.38656452  0.11343508  0.11343455  1
  O  O54  1  0.88656484  0.88656520  0.38656459  1
  O  O55  1  0.36343516  0.36343480  0.86343541  1
