# generated using pymatgen
data_ZrTi3B8
_symmetry_space_group_name_H-M   'P 1'
_cell_length_a   6.24778479
_cell_length_b   6.24778477
_cell_length_c   6.80765450
_cell_angle_alpha   90.00000000
_cell_angle_beta   90.00000000
_cell_angle_gamma   119.99999995
_symmetry_Int_Tables_number   1
_chemical_formula_structural   ZrTi3B8
_chemical_formula_sum   'Zr2 Ti6 B16'
_cell_volume   230.13372118
_cell_formula_units_Z   2
loop_
 _symmetry_equiv_pos_site_id
 _symmetry_equiv_pos_as_xyz
  1  'x, y, z'
loop_
 _atom_site_type_symbol
 _atom_site_label
 _atom_site_symmetry_multiplicity
 _atom_site_fract_x
 _atom_site_fract_y
 _atom_site_fract_z
 _atom_site_occupancy
  Ti  Ti0  1  0.00000000  0.00000000  0.00000000  1
  Ti  Ti1  1  0.00000000  0.00000000  0.50000000  1
  Ti  Ti2  1  0.00000000  0.50000000  0.00000000  1
  Ti  Ti3  1  0.00000000  0.50000000  0.50000000  1
  Ti  Ti4  1  0.50000000  0.00000000  0.00000000  1
  Ti  Ti5  1  0.50000000  0.00000000  0.50000000  1
  B  B6  1  0.16061537  0.33030770  0.25000000  1
  B  B7  1  0.33030770  0.16061537  0.25000000  1
  B  B8  1  0.16061537  0.33030770  0.75000000  1
  B  B9  1  0.33030770  0.16061537  0.75000000  1
  B  B10  1  0.16666666  0.83333333  0.25000000  1
  B  B11  1  0.33030770  0.66969231  0.25000000  1
  B  B12  1  0.16666666  0.83333333  0.75000000  1
  B  B13  1  0.33030770  0.66969231  0.75000000  1
  B  B14  1  0.66969231  0.33030770  0.25000000  1
  B  B15  1  0.83333333  0.16666666  0.25000000  1
  B  B16  1  0.66969231  0.33030770  0.75000000  1
  B  B17  1  0.83333333  0.16666666  0.75000000  1
  B  B18  1  0.66969231  0.83938462  0.25000000  1
  B  B19  1  0.83938462  0.66969231  0.25000000  1
  B  B20  1  0.66969231  0.83938462  0.75000000  1
  B  B21  1  0.83938462  0.66969231  0.75000000  1
  Zr  Zr22  1  0.50000000  0.50000000  0.00000000  1
  Zr  Zr23  1  0.50000000  0.50000000  0.50000000  1
