# generated using pymatgen
data_Fe2NiO4
_symmetry_space_group_name_H-M   'P 1'
_cell_length_a   8.41828907
_cell_length_b   8.41828907
_cell_length_c   8.41828907
_cell_angle_alpha   90.00000000
_cell_angle_beta   90.00000000
_cell_angle_gamma   90.00000000
_symmetry_Int_Tables_number   1
_chemical_formula_structural   Fe2NiO4
_chemical_formula_sum   'Fe16 Ni8 O32'
_cell_volume   596.58386561
_cell_formula_units_Z   8
loop_
 _symmetry_equiv_pos_site_id
 _symmetry_equiv_pos_as_xyz
  1  'x, y, z'
loop_
 _atom_site_type_symbol
 _atom_site_label
 _atom_site_symmetry_multiplicity
 _atom_site_fract_x
 _atom_site_fract_y
 _atom_site_fract_z
 _atom_site_occupancy
  Ni  Ni0  1  0.00000006  0.00000006  -0.00000029  1
  Ni  Ni1  1  0.00000006  0.50000006  0.49999971  1
  Ni  Ni2  1  0.50000006  0.50000006  -0.00000029  1
  Ni  Ni3  1  0.50000006  0.00000006  0.49999971  1
  Ni  Ni4  1  0.74999994  0.24999994  0.75000029  1
  Ni  Ni5  1  0.24999994  0.24999994  0.25000029  1
  Ni  Ni6  1  0.24999994  0.74999994  0.75000029  1
  Ni  Ni7  1  0.74999994  0.74999994  0.25000029  1
  Fe  Fe8  1  0.62500000  0.62500000  0.62500000  1
  Fe  Fe9  1  0.37500000  0.87500000  0.12500000  1
  Fe  Fe10  1  0.87500000  0.12500000  0.37500000  1
  Fe  Fe11  1  0.12500000  0.37500000  0.87500000  1
  Fe  Fe12  1  0.87500000  0.37500000  0.12500000  1
  Fe  Fe13  1  0.37500000  0.12500000  0.87500000  1
  Fe  Fe14  1  0.12500000  0.87500000  0.37500000  1
  Fe  Fe15  1  0.62500000  0.12500000  0.12500000  1
  Fe  Fe16  1  0.37500000  0.37500000  0.62500000  1
  Fe  Fe17  1  0.87500000  0.62500000  0.87500000  1
  Fe  Fe18  1  0.87500000  0.87500000  0.62500000  1
  Fe  Fe19  1  0.37500000  0.62500000  0.37500000  1
  Fe  Fe20  1  0.12500000  0.62500000  0.12500000  1
  Fe  Fe21  1  0.62500000  0.37500000  0.37500000  1
  Fe  Fe22  1  0.62500000  0.87500000  0.87500000  1
  Fe  Fe23  1  0.12500000  0.12500000  0.62500000  1
  O  O24  1  0.38471870  0.38471870  0.38286826  1
  O  O25  1  0.61528078  0.11528078  0.88286809  1
  O  O26  1  0.11528100  0.88471890  0.61713166  1
  O  O27  1  0.88471890  0.61528100  0.11713166  1
  O  O28  1  0.13471922  0.63471922  0.36713191  1
  O  O29  1  0.86528130  0.86528130  0.86713174  1
  O  O30  1  0.63471900  0.36528110  0.13286834  1
  O  O31  1  0.36528110  0.13471900  0.63286834  1
  O  O32  1  0.63471922  0.13471922  0.36713191  1
  O  O33  1  0.13471900  0.36528110  0.63286834  1
  O  O34  1  0.36528110  0.63471900  0.13286834  1
  O  O35  1  0.11528078  0.61528078  0.88286809  1
  O  O36  1  0.61528100  0.88471890  0.11713166  1
  O  O37  1  0.88471890  0.11528100  0.61713166  1
  O  O38  1  0.38471870  0.88471870  0.88286826  1
  O  O39  1  0.61528078  0.61528078  0.38286809  1
  O  O40  1  0.11528100  0.38471890  0.11713166  1
  O  O41  1  0.13471922  0.13471922  0.86713191  1
  O  O42  1  0.86528130  0.36528130  0.36713174  1
  O  O43  1  0.63471900  0.86528110  0.63286834  1
  O  O44  1  0.63471922  0.63471922  0.86713191  1
  O  O45  1  0.13471900  0.86528110  0.13286834  1
  O  O46  1  0.11528078  0.11528078  0.38286809  1
  O  O47  1  0.61528100  0.38471890  0.61713166  1
  O  O48  1  0.88471870  0.38471870  0.88286826  1
  O  O49  1  0.38471890  0.61528100  0.61713166  1
  O  O50  1  0.36528130  0.86528130  0.36713174  1
  O  O51  1  0.86528110  0.13471900  0.13286834  1
  O  O52  1  0.86528110  0.63471900  0.63286834  1
  O  O53  1  0.38471890  0.11528100  0.11713166  1
  O  O54  1  0.88471870  0.88471870  0.38286826  1
  O  O55  1  0.36528130  0.36528130  0.86713174  1
