# generated using pymatgen
data_Ti4Al2CO
_symmetry_space_group_name_H-M   'P 1'
_cell_length_a   6.02637934
_cell_length_b   6.03290292
_cell_length_c   13.69784245
_cell_angle_alpha   90.00000000
_cell_angle_beta   90.00000000
_cell_angle_gamma   120.03617306
_symmetry_Int_Tables_number   1
_chemical_formula_structural   Ti4Al2CO
_chemical_formula_sum   'Ti16 Al8 C4 O4'
_cell_volume   431.12894680
_cell_formula_units_Z   4
loop_
 _symmetry_equiv_pos_site_id
 _symmetry_equiv_pos_as_xyz
  1  'x, y, z'
loop_
 _atom_site_type_symbol
 _atom_site_label
 _atom_site_symmetry_multiplicity
 _atom_site_fract_x
 _atom_site_fract_y
 _atom_site_fract_z
 _atom_site_occupancy
  Ti  Ti0  1  0.17134114  0.33562924  0.08740849  1
  Ti  Ti1  1  0.33484609  0.16742587  0.58689023  1
  Ti  Ti2  1  0.33484609  0.16742587  0.91310977  1
  Ti  Ti3  1  0.17134114  0.33562924  0.41259151  1
  Ti  Ti4  1  0.66515391  0.33257413  0.08689023  1
  Ti  Ti5  1  0.82865886  0.16437076  0.58740849  1
  Ti  Ti6  1  0.82865886  0.16437076  0.91259151  1
  Ti  Ti7  1  0.66515391  0.33257413  0.41310977  1
  Ti  Ti8  1  0.17134114  0.83562924  0.08740849  1
  Ti  Ti9  1  0.33484609  0.66742587  0.58689023  1
  Ti  Ti10  1  0.33484609  0.66742587  0.91310977  1
  Ti  Ti11  1  0.17134114  0.83562924  0.41259151  1
  Ti  Ti12  1  0.66515391  0.83257413  0.08689023  1
  Ti  Ti13  1  0.82865886  0.66437076  0.58740849  1
  Ti  Ti14  1  0.82865886  0.66437076  0.91259151  1
  Ti  Ti15  1  0.66515391  0.83257413  0.41310977  1
  Al  Al16  1  0.16530409  0.33265077  0.75000000  1
  Al  Al17  1  0.33249497  0.16625658  0.25000000  1
  Al  Al18  1  0.66750503  0.33374342  0.75000000  1
  Al  Al19  1  0.83469591  0.16734923  0.25000000  1
  Al  Al20  1  0.16530409  0.83265077  0.75000000  1
  Al  Al21  1  0.33249497  0.66625658  0.25000000  1
  Al  Al22  1  0.66750503  0.83374342  0.75000000  1
  Al  Al23  1  0.83469591  0.66734923  0.25000000  1
  O  O24  1  -0.00000000  -0.00000000  -0.00000000  1
  O  O25  1  -0.00000000  -0.00000000  0.50000000  1
  O  O26  1  -0.00000000  0.50000000  -0.00000000  1
  O  O27  1  -0.00000000  0.50000000  0.50000000  1
  C  C28  1  0.50000000  -0.00000000  -0.00000000  1
  C  C29  1  0.50000000  -0.00000000  0.50000000  1
  C  C30  1  0.50000000  0.50000000  -0.00000000  1
  C  C31  1  0.50000000  0.50000000  0.50000000  1
