# generated using pymatgen
data_Ti2AlN
_symmetry_space_group_name_H-M   'P 1'
_cell_length_a   5.98717332
_cell_length_b   5.98717332
_cell_length_c   13.65149796
_cell_angle_alpha   90.00000000
_cell_angle_beta   90.00000000
_cell_angle_gamma   120.00000001
_symmetry_Int_Tables_number   1
_chemical_formula_structural   Ti2AlN
_chemical_formula_sum   'Ti16 Al8 N8'
_cell_volume   423.79380225
_cell_formula_units_Z   8
loop_
 _symmetry_equiv_pos_site_id
 _symmetry_equiv_pos_as_xyz
  1  'x, y, z'
loop_
 _atom_site_type_symbol
 _atom_site_label
 _atom_site_symmetry_multiplicity
 _atom_site_fract_x
 _atom_site_fract_y
 _atom_site_fract_z
 _atom_site_occupancy
  Ti  Ti0  1  0.16666667  0.33333333  0.41472749  1
  Ti  Ti1  1  0.33333333  0.16666667  0.91472749  1
  Ti  Ti2  1  0.33333333  0.16666667  0.58527251  1
  Ti  Ti3  1  0.16666667  0.33333333  0.08527251  1
  Ti  Ti4  1  0.16666667  0.83333333  0.41472749  1
  Ti  Ti5  1  0.33333333  0.66666667  0.91472749  1
  Ti  Ti6  1  0.33333333  0.66666667  0.58527251  1
  Ti  Ti7  1  0.16666667  0.83333333  0.08527251  1
  Ti  Ti8  1  0.66666667  0.33333333  0.41472749  1
  Ti  Ti9  1  0.83333333  0.16666667  0.91472749  1
  Ti  Ti10  1  0.83333333  0.16666667  0.58527251  1
  Ti  Ti11  1  0.66666667  0.33333333  0.08527251  1
  Ti  Ti12  1  0.66666667  0.83333333  0.41472749  1
  Ti  Ti13  1  0.83333333  0.66666667  0.91472749  1
  Ti  Ti14  1  0.83333333  0.66666667  0.58527251  1
  Ti  Ti15  1  0.66666667  0.83333333  0.08527251  1
  Al  Al16  1  0.16666667  0.33333333  0.75000000  1
  Al  Al17  1  0.33333333  0.16666667  0.25000000  1
  Al  Al18  1  0.16666667  0.83333333  0.75000000  1
  Al  Al19  1  0.33333333  0.66666667  0.25000000  1
  Al  Al20  1  0.66666667  0.33333333  0.75000000  1
  Al  Al21  1  0.83333333  0.16666667  0.25000000  1
  Al  Al22  1  0.66666667  0.83333333  0.75000000  1
  Al  Al23  1  0.83333333  0.66666667  0.25000000  1
  N  N24  1  0.00000000  0.00000000  0.00000000  1
  N  N25  1  0.00000000  0.00000000  0.50000000  1
  N  N26  1  0.00000000  0.50000000  0.00000000  1
  N  N27  1  0.00000000  0.50000000  0.50000000  1
  N  N28  1  0.50000000  0.00000000  0.00000000  1
  N  N29  1  0.50000000  0.00000000  0.50000000  1
  N  N30  1  0.50000000  0.50000000  0.00000000  1
  N  N31  1  0.50000000  0.50000000  0.50000000  1
