# generated using pymatgen
data_Ti8Al4C3N
_symmetry_space_group_name_H-M   'P 1'
_cell_length_a   6.10588480
_cell_length_b   6.10587802
_cell_length_c   13.67414300
_cell_angle_alpha   90.00000000
_cell_angle_beta   90.00000000
_cell_angle_gamma   120.00070930
_symmetry_Int_Tables_number   1
_chemical_formula_structural   Ti8Al4C3N
_chemical_formula_sum   'Ti16 Al8 C6 N2'
_cell_volume   441.49356183
_cell_formula_units_Z   2
loop_
 _symmetry_equiv_pos_site_id
 _symmetry_equiv_pos_as_xyz
  1  'x, y, z'
loop_
 _atom_site_type_symbol
 _atom_site_label
 _atom_site_symmetry_multiplicity
 _atom_site_fract_x
 _atom_site_fract_y
 _atom_site_fract_z
 _atom_site_occupancy
  Ti  Ti0  1  0.16853361  0.33427789  0.08340321  1
  Ti  Ti1  1  0.33146639  0.16572211  0.58340321  1
  Ti  Ti2  1  0.33427808  0.16853311  0.91659725  1
  Ti  Ti3  1  0.16572192  0.33146689  0.41659725  1
  Ti  Ti4  1  0.16667453  0.83332614  0.08444496  1
  Ti  Ti5  1  0.33332547  0.66667386  0.58444496  1
  Ti  Ti6  1  0.33432966  0.66567135  0.91640380  1
  Ti  Ti7  1  0.16567034  0.83432865  0.41640380  1
  Ti  Ti8  1  0.66567034  0.33432865  0.08359620  1
  Ti  Ti9  1  0.83432966  0.16567135  0.58359620  1
  Ti  Ti10  1  0.83332547  0.16667386  0.91555504  1
  Ti  Ti11  1  0.66667453  0.33332614  0.41555504  1
  Ti  Ti12  1  0.66572192  0.83146689  0.08340275  1
  Ti  Ti13  1  0.83427808  0.66853311  0.58340275  1
  Ti  Ti14  1  0.83146639  0.66572211  0.91659679  1
  Ti  Ti15  1  0.66853361  0.83427789  0.41659679  1
  Al  Al16  1  0.16719442  0.33280546  0.75000003  1
  Al  Al17  1  0.33280558  0.16719454  0.25000003  1
  Al  Al18  1  0.16614000  0.83385997  0.75060158  1
  Al  Al19  1  0.33386000  0.66614003  0.25060158  1
  Al  Al20  1  0.66614000  0.33385997  0.74939842  1
  Al  Al21  1  0.83386000  0.16614003  0.24939842  1
  Al  Al22  1  0.66719442  0.83280546  0.74999997  1
  Al  Al23  1  0.83280558  0.66719454  0.24999997  1
  C  C24  1  0.00000000  -0.00000000  -0.00000000  1
  C  C25  1  0.00000000  0.50000000  -0.00000000  1
  C  C26  1  0.00000000  0.50000000  0.50000000  1
  C  C27  1  0.50000000  -0.00000000  -0.00000000  1
  C  C28  1  0.50000000  -0.00000000  0.50000000  1
  C  C29  1  0.50000000  0.50000000  0.50000000  1
  N  N30  1  0.00000000  -0.00000000  0.50000000  1
  N  N31  1  0.50000000  0.50000000  -0.00000000  1
