# generated using pymatgen
data_Ti8Al4C3O
_symmetry_space_group_name_H-M   'P 1'
_cell_length_a   6.09105412
_cell_length_b   6.09081056
_cell_length_c   13.66548523
_cell_angle_alpha   90.00000000
_cell_angle_beta   90.00000000
_cell_angle_gamma   119.99899407
_symmetry_Int_Tables_number   1
_chemical_formula_structural   Ti8Al4C3O
_chemical_formula_sum   'Ti16 Al8 C6 O2'
_cell_volume   439.06380941
_cell_formula_units_Z   2
loop_
 _symmetry_equiv_pos_site_id
 _symmetry_equiv_pos_as_xyz
  1  'x, y, z'
loop_
 _atom_site_type_symbol
 _atom_site_label
 _atom_site_symmetry_multiplicity
 _atom_site_fract_x
 _atom_site_fract_y
 _atom_site_fract_z
 _atom_site_occupancy
  Ti  Ti0  1  0.16667682  0.33333975  0.08594700  1
  Ti  Ti1  1  0.33190425  0.16372637  0.58511188  1
  Ti  Ti2  1  0.33190526  0.16817804  0.91488715  1
  Ti  Ti3  1  0.16368412  0.33184069  0.41465418  1
  Ti  Ti4  1  0.16368412  0.83184069  0.08534582  1
  Ti  Ti5  1  0.33190526  0.66817804  0.58511285  1
  Ti  Ti6  1  0.33190425  0.66372637  0.91488812  1
  Ti  Ti7  1  0.16667682  0.83333975  0.41405300  1
  Ti  Ti8  1  0.66809575  0.33627363  0.08511188  1
  Ti  Ti9  1  0.83332318  0.16666025  0.58594700  1
  Ti  Ti10  1  0.83631588  0.16815931  0.91465418  1
  Ti  Ti11  1  0.66809474  0.33182196  0.41488715  1
  Ti  Ti12  1  0.66809474  0.83182196  0.08511285  1
  Ti  Ti13  1  0.83631588  0.66815931  0.58534582  1
  Ti  Ti14  1  0.83332318  0.66666025  0.91405300  1
  Ti  Ti15  1  0.66809575  0.83627363  0.41488812  1
  Al  Al16  1  0.16794640  0.33396981  0.75031523  1
  Al  Al17  1  0.33457139  0.16728687  0.25000181  1
  Al  Al18  1  0.16794640  0.83396981  0.74968477  1
  Al  Al19  1  0.33457139  0.66728687  0.24999819  1
  Al  Al20  1  0.66542861  0.33271313  0.75000181  1
  Al  Al21  1  0.83205360  0.16603019  0.25031523  1
  Al  Al22  1  0.66542861  0.83271313  0.74999819  1
  Al  Al23  1  0.83205360  0.66603019  0.24968477  1
  C  C24  1  -0.00000000  -0.00000000  0.00000000  1
  C  C25  1  -0.00000000  -0.00000000  0.50000000  1
  C  C26  1  -0.00000000  0.50000000  0.00000000  1
  C  C27  1  -0.00000000  0.50000000  0.50000000  1
  C  C28  1  0.50000000  -0.00000000  0.50000000  1
  C  C29  1  0.50000000  0.50000000  0.00000000  1
  O  O30  1  0.50000000  -0.00000000  0.00000000  1
  O  O31  1  0.50000000  0.50000000  0.50000000  1
