# generated using pymatgen
data_Ti8Al4CO3
_symmetry_space_group_name_H-M   'P 1'
_cell_length_a   5.97402527
_cell_length_b   5.97378194
_cell_length_c   13.76721190
_cell_angle_alpha   90.00000000
_cell_angle_beta   90.00000000
_cell_angle_gamma   119.99707715
_symmetry_Int_Tables_number   1
_chemical_formula_structural   Ti8Al4CO3
_chemical_formula_sum   'Ti16 Al8 C2 O6'
_cell_volume   425.50614835
_cell_formula_units_Z   2
loop_
 _symmetry_equiv_pos_site_id
 _symmetry_equiv_pos_as_xyz
  1  'x, y, z'
loop_
 _atom_site_type_symbol
 _atom_site_label
 _atom_site_symmetry_multiplicity
 _atom_site_fract_x
 _atom_site_fract_y
 _atom_site_fract_z
 _atom_site_occupancy
  Ti  Ti0  1  0.16479402  0.33528492  0.08839800  1
  Ti  Ti1  1  0.33524307  0.17047904  0.58815418  1
  Ti  Ti2  1  0.33331400  0.16661924  0.90931335  1
  Ti  Ti3  1  0.17048582  0.33529201  0.41160319  1
  Ti  Ti4  1  0.16475693  0.82952096  0.08815418  1
  Ti  Ti5  1  0.33520598  0.66471508  0.58839800  1
  Ti  Ti6  1  0.32951418  0.66470799  0.91160319  1
  Ti  Ti7  1  0.16668600  0.83338076  0.40931335  1
  Ti  Ti8  1  0.67048582  0.33529201  0.08839681  1
  Ti  Ti9  1  0.83331400  0.16661924  0.59068665  1
  Ti  Ti10  1  0.83524307  0.17047904  0.91184582  1
  Ti  Ti11  1  0.66479402  0.33528492  0.41160200  1
  Ti  Ti12  1  0.66668600  0.83338076  0.09068665  1
  Ti  Ti13  1  0.82951418  0.66470799  0.58839681  1
  Ti  Ti14  1  0.83520598  0.66471508  0.91160200  1
  Ti  Ti15  1  0.66475693  0.82952096  0.41184582  1
  Al  Al16  1  0.16673233  0.33347021  0.75000019  1
  Al  Al17  1  0.33337970  0.16675872  0.24999308  1
  Al  Al18  1  0.16662030  0.83324128  0.74999308  1
  Al  Al19  1  0.33326767  0.66652979  0.25000019  1
  Al  Al20  1  0.66673233  0.33347021  0.74999981  1
  Al  Al21  1  0.83337970  0.16675872  0.25000692  1
  Al  Al22  1  0.66662030  0.83324128  0.75000692  1
  Al  Al23  1  0.83326767  0.66652979  0.24999981  1
  O  O24  1  -0.00000000  0.00000000  -0.00000000  1
  O  O25  1  -0.00000000  0.00000000  0.50000000  1
  O  O26  1  -0.00000000  0.50000000  0.50000000  1
  O  O27  1  0.50000000  0.00000000  -0.00000000  1
  O  O28  1  0.50000000  0.00000000  0.50000000  1
  O  O29  1  0.50000000  0.50000000  -0.00000000  1
  C  C30  1  -0.00000000  0.50000000  -0.00000000  1
  C  C31  1  0.50000000  0.50000000  0.50000000  1
