# generated using pymatgen
data_Ti4Al2CN
_symmetry_space_group_name_H-M   'P 1'
_cell_length_a   6.06915266
_cell_length_b   6.07066699
_cell_length_c   13.65715444
_cell_angle_alpha   90.00000000
_cell_angle_beta   90.00000000
_cell_angle_gamma   120.00286652
_symmetry_Int_Tables_number   1
_chemical_formula_structural   Ti4Al2CN
_chemical_formula_sum   'Ti16 Al8 C4 N4'
_cell_volume   435.75540126
_cell_formula_units_Z   4
loop_
 _symmetry_equiv_pos_site_id
 _symmetry_equiv_pos_as_xyz
  1  'x, y, z'
loop_
 _atom_site_type_symbol
 _atom_site_label
 _atom_site_symmetry_multiplicity
 _atom_site_fract_x
 _atom_site_fract_y
 _atom_site_fract_z
 _atom_site_occupancy
  Ti  Ti0  1  0.16509375  0.33254710  0.08391130  1
  Ti  Ti1  1  0.33103868  0.16552115  0.58496396  1
  Ti  Ti2  1  0.33103868  0.16552115  0.91503604  1
  Ti  Ti3  1  0.16509375  0.33254710  0.41608870  1
  Ti  Ti4  1  0.66896132  0.33447885  0.08496396  1
  Ti  Ti5  1  0.83490625  0.16745290  0.58391130  1
  Ti  Ti6  1  0.83490625  0.16745290  0.91608870  1
  Ti  Ti7  1  0.66896132  0.33447885  0.41503604  1
  Ti  Ti8  1  0.16509375  0.83254710  0.08391130  1
  Ti  Ti9  1  0.33103868  0.66552115  0.58496396  1
  Ti  Ti10  1  0.33103868  0.66552115  0.91503604  1
  Ti  Ti11  1  0.16509375  0.83254710  0.41608870  1
  Ti  Ti12  1  0.66896132  0.83447885  0.08496396  1
  Ti  Ti13  1  0.83490625  0.66745290  0.58391130  1
  Ti  Ti14  1  0.83490625  0.66745290  0.91608870  1
  Ti  Ti15  1  0.66896132  0.83447885  0.41503604  1
  Al  Al16  1  0.16512946  0.33255968  0.75000000  1
  Al  Al17  1  0.33176605  0.16588067  0.25000000  1
  Al  Al18  1  0.66823395  0.33411933  0.75000000  1
  Al  Al19  1  0.83487054  0.16744032  0.25000000  1
  Al  Al20  1  0.16512946  0.83255968  0.75000000  1
  Al  Al21  1  0.33176605  0.66588067  0.25000000  1
  Al  Al22  1  0.66823395  0.83411933  0.75000000  1
  Al  Al23  1  0.83487054  0.66744032  0.25000000  1
  N  N24  1  -0.00000000  -0.00000000  -0.00000000  1
  N  N25  1  -0.00000000  -0.00000000  0.50000000  1
  N  N26  1  -0.00000000  0.50000000  -0.00000000  1
  N  N27  1  -0.00000000  0.50000000  0.50000000  1
  C  C28  1  0.50000000  -0.00000000  -0.00000000  1
  C  C29  1  0.50000000  -0.00000000  0.50000000  1
  C  C30  1  0.50000000  0.50000000  -0.00000000  1
  C  C31  1  0.50000000  0.50000000  0.50000000  1
