# generated using pymatgen
data_Ti8Al4C3N
_symmetry_space_group_name_H-M   'P 1'
_cell_length_a   6.33435725
_cell_length_b   6.33435725
_cell_length_c   14.28579480
_cell_angle_alpha   90.00000000
_cell_angle_beta   90.00000000
_cell_angle_gamma   120.00126596
_symmetry_Int_Tables_number   1
_chemical_formula_structural   Ti8Al4C3N
_chemical_formula_sum   'Ti16 Al8 C6 N2'
_cell_volume   496.40323780
_cell_formula_units_Z   2
loop_
 _symmetry_equiv_pos_site_id
 _symmetry_equiv_pos_as_xyz
  1  'x, y, z'
loop_
 _atom_site_type_symbol
 _atom_site_label
 _atom_site_symmetry_multiplicity
 _atom_site_fract_x
 _atom_site_fract_y
 _atom_site_fract_z
 _atom_site_occupancy
  Ti  Ti0  1  0.16836283  0.33415968  0.07952750  1
  Ti  Ti1  1  0.33163717  0.16584032  0.57952750  1
  Ti  Ti2  1  0.33415968  0.16836283  0.92047250  1
  Ti  Ti3  1  0.16584032  0.33163717  0.42047250  1
  Ti  Ti4  1  0.16665845  0.83334154  0.08047842  1
  Ti  Ti5  1  0.33334155  0.66665846  0.58047842  1
  Ti  Ti6  1  0.33411352  0.66588649  0.92034605  1
  Ti  Ti7  1  0.16588648  0.83411351  0.42034605  1
  Ti  Ti8  1  0.66588649  0.33411352  0.07965395  1
  Ti  Ti9  1  0.83411351  0.16588648  0.57965395  1
  Ti  Ti10  1  0.83334154  0.16665845  0.91952158  1
  Ti  Ti11  1  0.66665846  0.33334155  0.41952158  1
  Ti  Ti12  1  0.66584033  0.83163716  0.07952750  1
  Ti  Ti13  1  0.83415967  0.66836284  0.57952750  1
  Ti  Ti14  1  0.83163716  0.66584033  0.92047250  1
  Ti  Ti15  1  0.66836284  0.83415967  0.42047250  1
  Al  Al16  1  0.16717624  0.33282376  0.75000000  1
  Al  Al17  1  0.33282376  0.16717624  0.25000000  1
  Al  Al18  1  0.16614440  0.83385559  0.75056667  1
  Al  Al19  1  0.33385560  0.66614441  0.25056667  1
  Al  Al20  1  0.66614441  0.33385560  0.74943333  1
  Al  Al21  1  0.83385559  0.16614440  0.24943333  1
  Al  Al22  1  0.66717625  0.83282375  0.75000000  1
  Al  Al23  1  0.83282375  0.66717625  0.25000000  1
  C  C24  1  -0.00000000  0.00000000  -0.00000000  1
  C  C25  1  -0.00000000  0.50000000  -0.00000000  1
  C  C26  1  -0.00000000  0.50000000  0.50000000  1
  C  C27  1  0.50000000  0.00000000  -0.00000000  1
  C  C28  1  0.50000000  0.00000000  0.50000000  1
  C  C29  1  0.50000000  0.50000000  0.50000000  1
  N  N30  1  -0.00000000  0.00000000  0.50000000  1
  N  N31  1  0.50000000  0.50000000  -0.00000000  1
