# generated using pymatgen
data_Ti8Al4C3N
_symmetry_space_group_name_H-M   'P 1'
_cell_length_a   6.31996410
_cell_length_b   6.31996409
_cell_length_c   14.24990663
_cell_angle_alpha   90.00000000
_cell_angle_beta   90.00000000
_cell_angle_gamma   120.00148487
_symmetry_Int_Tables_number   1
_chemical_formula_structural   Ti8Al4C3N
_chemical_formula_sum   'Ti16 Al8 C6 N2'
_cell_volume   492.90744083
_cell_formula_units_Z   2
loop_
 _symmetry_equiv_pos_site_id
 _symmetry_equiv_pos_as_xyz
  1  'x, y, z'
loop_
 _atom_site_type_symbol
 _atom_site_label
 _atom_site_symmetry_multiplicity
 _atom_site_fract_x
 _atom_site_fract_y
 _atom_site_fract_z
 _atom_site_occupancy
  Ti  Ti0  1  0.16836269  0.33416473  0.07990602  1
  Ti  Ti1  1  0.33163731  0.16583527  0.57990602  1
  Ti  Ti2  1  0.33416473  0.16836269  0.92009398  1
  Ti  Ti3  1  0.16583527  0.33163731  0.42009398  1
  Ti  Ti4  1  0.16661785  0.83338214  0.08071182  1
  Ti  Ti5  1  0.33338215  0.66661786  0.58071182  1
  Ti  Ti6  1  0.33417052  0.66582949  0.91996864  1
  Ti  Ti7  1  0.16582948  0.83417051  0.41996864  1
  Ti  Ti8  1  0.66582949  0.33417052  0.08003136  1
  Ti  Ti9  1  0.83417051  0.16582948  0.58003136  1
  Ti  Ti10  1  0.83338214  0.16661785  0.91928818  1
  Ti  Ti11  1  0.66661786  0.33338215  0.41928818  1
  Ti  Ti12  1  0.66583528  0.83163730  0.07990602  1
  Ti  Ti13  1  0.83416472  0.66836270  0.57990602  1
  Ti  Ti14  1  0.83163730  0.66583528  0.92009398  1
  Ti  Ti15  1  0.66836270  0.83416472  0.42009398  1
  Al  Al16  1  0.16726329  0.33273671  0.75000000  1
  Al  Al17  1  0.33273671  0.16726329  0.25000000  1
  Al  Al18  1  0.16608742  0.83391257  0.75060569  1
  Al  Al19  1  0.33391258  0.66608743  0.25060569  1
  Al  Al20  1  0.66608743  0.33391258  0.74939431  1
  Al  Al21  1  0.83391257  0.16608742  0.24939431  1
  Al  Al22  1  0.66726330  0.83273670  0.75000000  1
  Al  Al23  1  0.83273670  0.66726330  0.25000000  1
  C  C24  1  -0.00000000  0.00000000  0.00000000  1
  C  C25  1  -0.00000000  0.50000000  0.00000000  1
  C  C26  1  -0.00000000  0.50000000  0.50000000  1
  C  C27  1  0.50000000  0.00000000  0.00000000  1
  C  C28  1  0.50000000  0.00000000  0.50000000  1
  C  C29  1  0.50000000  0.50000000  0.50000000  1
  N  N30  1  -0.00000000  0.00000000  0.50000000  1
  N  N31  1  0.50000000  0.50000000  0.00000000  1
