# generated using pymatgen
data_Ti8Al4C3N
_symmetry_space_group_name_H-M   'P 1'
_cell_length_a   6.35342365
_cell_length_b   6.35342364
_cell_length_c   14.36830310
_cell_angle_alpha   90.00000000
_cell_angle_beta   90.00000000
_cell_angle_gamma   120.00167071
_symmetry_Int_Tables_number   1
_chemical_formula_structural   Ti8Al4C3N
_chemical_formula_sum   'Ti16 Al8 C6 N2'
_cell_volume   502.27831754
_cell_formula_units_Z   2
loop_
 _symmetry_equiv_pos_site_id
 _symmetry_equiv_pos_as_xyz
  1  'x, y, z'
loop_
 _atom_site_type_symbol
 _atom_site_label
 _atom_site_symmetry_multiplicity
 _atom_site_fract_x
 _atom_site_fract_y
 _atom_site_fract_z
 _atom_site_occupancy
  Ti  Ti0  1  0.16815075  0.33403226  0.07898332  1
  Ti  Ti1  1  0.33184925  0.16596774  0.57898332  1
  Ti  Ti2  1  0.33403226  0.16815075  0.92101668  1
  Ti  Ti3  1  0.16596774  0.33184925  0.42101668  1
  Ti  Ti4  1  0.16665617  0.83334382  0.07992792  1
  Ti  Ti5  1  0.33334383  0.66665618  0.57992792  1
  Ti  Ti6  1  0.33409584  0.66590417  0.92091605  1
  Ti  Ti7  1  0.16590416  0.83409583  0.42091605  1
  Ti  Ti8  1  0.66590417  0.33409584  0.07908395  1
  Ti  Ti9  1  0.83409583  0.16590416  0.57908395  1
  Ti  Ti10  1  0.83334382  0.16665617  0.92007208  1
  Ti  Ti11  1  0.66665618  0.33334383  0.42007208  1
  Ti  Ti12  1  0.66596775  0.83184924  0.07898332  1
  Ti  Ti13  1  0.83403225  0.66815076  0.57898332  1
  Ti  Ti14  1  0.83184924  0.66596775  0.92101668  1
  Ti  Ti15  1  0.66815076  0.83403225  0.42101668  1
  Al  Al16  1  0.16715631  0.33284369  0.75000000  1
  Al  Al17  1  0.33284369  0.16715631  0.25000000  1
  Al  Al18  1  0.16618394  0.83381605  0.75055890  1
  Al  Al19  1  0.33381606  0.66618395  0.25055890  1
  Al  Al20  1  0.66618395  0.33381606  0.74944110  1
  Al  Al21  1  0.83381605  0.16618394  0.24944110  1
  Al  Al22  1  0.66715632  0.83284368  0.75000000  1
  Al  Al23  1  0.83284368  0.66715632  0.25000000  1
  C  C24  1  -0.00000000  0.00000000  0.00000000  1
  C  C25  1  -0.00000000  0.50000000  0.00000000  1
  C  C26  1  -0.00000000  0.50000000  0.50000000  1
  C  C27  1  0.50000000  0.00000000  0.00000000  1
  C  C28  1  0.50000000  0.00000000  0.50000000  1
  C  C29  1  0.50000000  0.50000000  0.50000000  1
  N  N30  1  -0.00000000  0.00000000  0.50000000  1
  N  N31  1  0.50000000  0.50000000  0.00000000  1
