# generated using pymatgen
data_AlN
_symmetry_space_group_name_H-M   'P 1'
_cell_length_a   6.25697165
_cell_length_b   6.25697164
_cell_length_c   10.02966665
_cell_angle_alpha   90.00000000
_cell_angle_beta   90.00000000
_cell_angle_gamma   120.00000000
_symmetry_Int_Tables_number   1
_chemical_formula_structural   AlN
_chemical_formula_sum   'Al16 N16'
_cell_volume   340.05213370
_cell_formula_units_Z   16
loop_
 _symmetry_equiv_pos_site_id
 _symmetry_equiv_pos_as_xyz
  1  'x, y, z'
loop_
 _atom_site_type_symbol
 _atom_site_label
 _atom_site_symmetry_multiplicity
 _atom_site_fract_x
 _atom_site_fract_y
 _atom_site_fract_z
 _atom_site_occupancy
  Al  Al0  1  0.16666667  0.33333333  0.00080980  1
  Al  Al1  1  0.33333333  0.16666667  0.25080980  1
  Al  Al2  1  0.16666667  0.33333333  0.50080980  1
  Al  Al3  1  0.33333333  0.16666667  0.75080980  1
  Al  Al4  1  0.16666667  0.83333333  0.00080980  1
  Al  Al5  1  0.33333333  0.66666667  0.25080980  1
  Al  Al6  1  0.16666667  0.83333333  0.50080980  1
  Al  Al7  1  0.33333333  0.66666667  0.75080980  1
  Al  Al8  1  0.66666667  0.33333333  0.00080980  1
  Al  Al9  1  0.83333333  0.16666667  0.25080980  1
  Al  Al10  1  0.66666667  0.33333333  0.50080980  1
  Al  Al11  1  0.83333333  0.16666667  0.75080980  1
  Al  Al12  1  0.66666667  0.83333333  0.00080980  1
  Al  Al13  1  0.83333333  0.66666667  0.25080980  1
  Al  Al14  1  0.66666667  0.83333333  0.50080980  1
  Al  Al15  1  0.83333333  0.66666667  0.75080980  1
  N  N16  1  0.16666667  0.33333333  0.19169020  1
  N  N17  1  0.33333333  0.16666667  0.44169020  1
  N  N18  1  0.16666667  0.33333333  0.69169020  1
  N  N19  1  0.33333333  0.16666667  0.94169020  1
  N  N20  1  0.16666667  0.83333333  0.19169020  1
  N  N21  1  0.33333333  0.66666667  0.44169020  1
  N  N22  1  0.16666667  0.83333333  0.69169020  1
  N  N23  1  0.33333333  0.66666667  0.94169020  1
  N  N24  1  0.66666667  0.33333333  0.19169020  1
  N  N25  1  0.83333333  0.16666667  0.44169020  1
  N  N26  1  0.66666667  0.33333333  0.69169020  1
  N  N27  1  0.83333333  0.16666667  0.94169020  1
  N  N28  1  0.66666667  0.83333333  0.19169020  1
  N  N29  1  0.83333333  0.66666667  0.44169020  1
  N  N30  1  0.66666667  0.83333333  0.69169020  1
  N  N31  1  0.83333333  0.66666667  0.94169020  1
