# generated using pymatgen
data_Li7La3Zr2O12
_symmetry_space_group_name_H-M   'P 1'
_cell_length_a   11.27061045
_cell_length_b   11.27061045
_cell_length_c   11.27061045
_cell_angle_alpha   108.35075188
_cell_angle_beta   108.35075190
_cell_angle_gamma   111.73617766
_symmetry_Int_Tables_number   1
_chemical_formula_structural   Li7La3Zr2O12
_chemical_formula_sum   'Li28 La12 Zr8 O48'
_cell_volume   1100.80119806
_cell_formula_units_Z   4
loop_
 _symmetry_equiv_pos_site_id
 _symmetry_equiv_pos_as_xyz
  1  'x, y, z'
loop_
 _atom_site_type_symbol
 _atom_site_label
 _atom_site_symmetry_multiplicity
 _atom_site_fract_x
 _atom_site_fract_y
 _atom_site_fract_z
 _atom_site_occupancy
  Li  Li0  1  0.75000000  0.25000000  0.50000000  1
  Li  Li1  1  0.25000000  0.75000000  0.50000000  1
  Li  Li2  1  0.00000000  0.00000000  0.00000000  1
  Li  Li3  1  0.50000000  0.50000000  0.00000000  1
  Li  Li4  1  0.17894514  0.67894514  0.85789027  1
  Li  Li5  1  0.67894514  0.82105486  0.50000000  1
  Li  Li6  1  0.42894514  0.42894514  0.35789027  1
  Li  Li7  1  0.92894514  0.57105486  0.00000000  1
  Li  Li8  1  0.07105486  0.07105486  0.64210973  1
  Li  Li9  1  0.57105486  0.92894514  0.00000000  1
  Li  Li10  1  0.82105486  0.32105486  0.14210973  1
  Li  Li11  1  0.32105486  0.17894514  0.50000000  1
  Li  Li12  1  0.40044220  0.65526240  0.41762661  1
  Li  Li13  1  0.90044220  0.48281559  0.74517980  1
  Li  Li14  1  0.40526240  0.65044220  0.91762661  1
  Li  Li15  1  0.90526240  0.98763579  0.75482020  1
  Li  Li16  1  0.84955780  0.09473760  0.08237339  1
  Li  Li17  1  0.34955780  0.26718441  0.75482020  1
  Li  Li18  1  0.84473760  0.09955780  0.58237339  1
  Li  Li19  1  0.34473760  0.76236421  0.74517980  1
  Li  Li20  1  0.73763579  0.15526240  0.25482020  1
  Li  Li21  1  0.23763579  0.98281559  0.58237339  1
  Li  Li22  1  0.23281559  0.15044220  0.24517980  1
  Li  Li23  1  0.73281559  0.48763579  0.08237339  1
  Li  Li24  1  0.51236421  0.59473760  0.24517980  1
  Li  Li25  1  0.01236421  0.76718441  0.91762661  1
  Li  Li26  1  0.01718441  0.59955780  0.25482020  1
  Li  Li27  1  0.51718441  0.26236421  0.41762661  1
  La  La28  1  0.00000000  0.50000000  0.50000000  1
  La  La29  1  0.50000000  0.00000000  0.50000000  1
  La  La30  1  0.25000000  0.25000000  0.00000000  1
  La  La31  1  0.75000000  0.75000000  0.00000000  1
  La  La32  1  0.00310485  0.12500000  0.37810485  1
  La  La33  1  0.50310485  0.12500000  0.87810485  1
  La  La34  1  0.87500000  0.25310485  0.87810485  1
  La  La35  1  0.37500000  0.49689515  0.62189515  1
  La  La36  1  0.24689515  0.62500000  0.12189515  1
  La  La37  1  0.74689515  0.62500000  0.62189515  1
  La  La38  1  0.87500000  0.75310485  0.37810485  1
  La  La39  1  0.37500000  0.99689515  0.12189515  1
  Zr  Zr40  1  0.12500000  0.37500000  0.25000000  1
  Zr  Zr41  1  0.62500000  0.37500000  0.75000000  1
  Zr  Zr42  1  0.12500000  0.37500000  0.75000000  1
  Zr  Zr43  1  0.62500000  0.87500000  0.75000000  1
  Zr  Zr44  1  0.62500000  0.87500000  0.25000000  1
  Zr  Zr45  1  0.12500000  0.87500000  0.75000000  1
  Zr  Zr46  1  0.12500000  0.87500000  0.25000000  1
  Zr  Zr47  1  0.62500000  0.37500000  0.25000000  1
  O  O48  1  0.93631864  0.27635440  0.26982171  1
  O  O49  1  0.43631864  0.16649693  0.65996424  1
  O  O50  1  0.02635440  0.18631864  0.76982171  1
  O  O51  1  0.52635440  0.75653269  0.84003576  1
  O  O52  1  0.31368136  0.47364560  0.23017829  1
  O  O53  1  0.81368136  0.58350307  0.84003576  1
  O  O54  1  0.22364560  0.56368136  0.73017829  1
  O  O55  1  0.72364560  0.99346731  0.65996424  1
  O  O56  1  0.50653269  0.77635440  0.34003576  1
  O  O57  1  0.00653269  0.66649693  0.73017829  1
  O  O58  1  0.91649693  0.68631864  0.15996424  1
  O  O59  1  0.41649693  0.25653269  0.23017829  1
  O  O60  1  0.74346731  0.97364560  0.15996424  1
  O  O61  1  0.24346731  0.08350307  0.76982171  1
  O  O62  1  0.33350307  0.06368136  0.34003576  1
  O  O63  1  0.83350307  0.49346731  0.26982171  1
  O  O64  1  0.64505751  0.69371389  0.15717961  1
  O  O65  1  0.14505751  0.98787791  0.95134362  1
  O  O66  1  0.44371389  0.89505751  0.65717961  1
  O  O67  1  0.94371389  0.28653428  0.54865638  1
  O  O68  1  0.60494249  0.05628611  0.34282039  1
  O  O69  1  0.10494249  0.76212209  0.54865638  1
  O  O70  1  0.80628611  0.85494249  0.84282039  1
  O  O71  1  0.30628611  0.46346572  0.95134362  1
  O  O72  1  0.03653428  0.19371389  0.04865638  1
  O  O73  1  0.53653428  0.48787791  0.84282039  1
  O  O74  1  0.73787791  0.39505751  0.45134362  1
  O  O75  1  0.23787791  0.78653428  0.34282039  1
  O  O76  1  0.21346572  0.55628611  0.45134362  1
  O  O77  1  0.71346572  0.26212209  0.65717961  1
  O  O78  1  0.51212209  0.35494249  0.04865638  1
  O  O79  1  0.01212209  0.96346572  0.15717961  1
  O  O80  1  0.82864108  0.95582406  0.42733279  1
  O  O81  1  0.32864108  0.90130830  0.87281703  1
  O  O82  1  0.70582406  0.07864108  0.92733279  1
  O  O83  1  0.20582406  0.27849127  0.62718297  1
  O  O84  1  0.42135892  0.79417594  0.07266721  1
  O  O85  1  0.92135892  0.84869170  0.62718297  1
  O  O86  1  0.54417594  0.67135892  0.57266721  1
  O  O87  1  0.04417594  0.47150873  0.87281703  1
  O  O88  1  0.02849127  0.45582406  0.12718297  1
  O  O89  1  0.52849127  0.40130830  0.57266721  1
  O  O90  1  0.65130830  0.57864108  0.37281703  1
  O  O91  1  0.15130830  0.77849127  0.07266721  1
  O  O92  1  0.22150873  0.29417594  0.37281703  1
  O  O93  1  0.72150873  0.34869170  0.92733279  1
  O  O94  1  0.59869170  0.17135892  0.12718297  1
  O  O95  1  0.09869170  0.97150873  0.42733279  1
