# generated using pymatgen
data_Ta2CN
_symmetry_space_group_name_H-M   'P 1'
_cell_length_a   6.31973448
_cell_length_b   6.31973448
_cell_length_c   4.44384078
_cell_angle_alpha   90.00000000
_cell_angle_beta   90.00000000
_cell_angle_gamma   90.00000000
_symmetry_Int_Tables_number   1
_chemical_formula_structural   Ta2CN
_chemical_formula_sum   'Ta8 C4 N4'
_cell_volume   177.48275199
_cell_formula_units_Z   4
loop_
 _symmetry_equiv_pos_site_id
 _symmetry_equiv_pos_as_xyz
  1  'x, y, z'
loop_
 _atom_site_type_symbol
 _atom_site_label
 _atom_site_symmetry_multiplicity
 _atom_site_fract_x
 _atom_site_fract_y
 _atom_site_fract_z
 _atom_site_occupancy
  C  C0  1  0.49810164  -0.00000000  0.50000000  1
  C  C1  1  0.25000000  0.24810164  -0.00000000  1
  C  C2  1  0.25000000  0.75189836  0.00000000  1
  C  C3  1  0.00189836  -0.00000000  0.50000000  1
  N  N4  1  0.75000000  0.25414257  0.00000000  1
  N  N5  1  0.75000000  0.74585743  0.00000000  1
  N  N6  1  0.50414257  0.50000000  0.50000000  1
  N  N7  1  0.99585743  0.50000000  0.50000000  1
  Ta  Ta8  1  0.75000000  0.76618345  0.50000000  1
  Ta  Ta9  1  0.75000000  0.23381655  0.50000000  1
  Ta  Ta10  1  0.48381655  0.50000000  -0.00000000  1
  Ta  Ta11  1  0.48972488  -0.00000000  -0.00000000  1
  Ta  Ta12  1  0.25000000  0.76027512  0.50000000  1
  Ta  Ta13  1  0.25000000  0.23972488  0.50000000  1
  Ta  Ta14  1  0.01618345  0.50000000  0.00000000  1
  Ta  Ta15  1  0.01027512  -0.00000000  0.00000000  1
