# generated using pymatgen
data_Ta4C3N
_symmetry_space_group_name_H-M   'P 1'
_cell_length_a   6.31406567
_cell_length_b   6.31916657
_cell_length_c   8.96095170
_cell_angle_alpha   90.00000000
_cell_angle_beta   90.00000000
_cell_angle_gamma   90.00000000
_symmetry_Int_Tables_number   1
_chemical_formula_structural   Ta4C3N
_chemical_formula_sum   'Ta16 C12 N4'
_cell_volume   357.53868150
_cell_formula_units_Z   4
loop_
 _symmetry_equiv_pos_site_id
 _symmetry_equiv_pos_as_xyz
  1  'x, y, z'
loop_
 _atom_site_type_symbol
 _atom_site_label
 _atom_site_symmetry_multiplicity
 _atom_site_fract_x
 _atom_site_fract_y
 _atom_site_fract_z
 _atom_site_occupancy
  C  C0  1  0.75000000  0.75124632  0.49902303  1
  C  C1  1  0.75000000  0.24808933  0.49881263  1
  C  C2  1  0.25000000  0.75191067  0.49881263  1
  C  C3  1  0.25000000  0.24875368  0.49902303  1
  C  C4  1  0.50000000  0.50000000  0.25094362  1
  C  C5  1  0.75000000  0.24775146  0.00093506  1
  C  C6  1  0.00000000  0.50000000  0.25094362  1
  C  C7  1  0.25000000  0.75224854  0.00093506  1
  C  C8  1  0.50000000  0.50000000  0.75088302  1
  C  C9  1  0.50000000  0.00000000  0.74932215  1
  C  C10  1  0.00000000  0.50000000  0.75088302  1
  C  C11  1  0.00000000  0.00000000  0.74932215  1
  N  N12  1  0.50000000  0.00000000  0.24795726  1
  N  N13  1  0.75000000  0.75265427  0.00214897  1
  N  N14  1  0.00000000  0.00000000  0.24795726  1
  N  N15  1  0.25000000  0.24734573  0.00214897  1
  Ta  Ta16  1  0.75000000  0.25494131  0.75201587  1
  Ta  Ta17  1  0.75000000  0.75259463  0.74552278  1
  Ta  Ta18  1  0.25000000  0.24740537  0.74552278  1
  Ta  Ta19  1  0.25000000  0.74505869  0.75201587  1
  Ta  Ta20  1  0.50000000  0.00000000  0.51076049  1
  Ta  Ta21  1  0.50000000  0.50000000  0.49578363  1
  Ta  Ta22  1  0.75000000  0.26226917  0.24772382  1
  Ta  Ta23  1  0.75000000  0.73216762  0.25479426  1
  Ta  Ta24  1  0.00000000  0.00000000  0.51076049  1
  Ta  Ta25  1  0.00000000  0.50000000  0.49578363  1
  Ta  Ta26  1  0.25000000  0.26783238  0.25479426  1
  Ta  Ta27  1  0.25000000  0.73773083  0.24772382  1
  Ta  Ta28  1  0.50000000  0.00000000  0.98830811  1
  Ta  Ta29  1  0.50000000  0.50000000  0.00506529  1
  Ta  Ta30  1  0.00000000  0.00000000  0.98830811  1
  Ta  Ta31  1  0.00000000  0.50000000  0.00506529  1
