# generated using pymatgen
data_HfTaN2
_symmetry_space_group_name_H-M   'P 1'
_cell_length_a   6.32291424
_cell_length_b   6.31199058
_cell_length_c   4.48760838
_cell_angle_alpha   90.00000000
_cell_angle_beta   90.00000000
_cell_angle_gamma   90.00000000
_symmetry_Int_Tables_number   1
_chemical_formula_structural   HfTaN2
_chemical_formula_sum   'Hf4 Ta4 N8'
_cell_volume   179.10123632
_cell_formula_units_Z   4
loop_
 _symmetry_equiv_pos_site_id
 _symmetry_equiv_pos_as_xyz
  1  'x, y, z'
loop_
 _atom_site_type_symbol
 _atom_site_label
 _atom_site_symmetry_multiplicity
 _atom_site_fract_x
 _atom_site_fract_y
 _atom_site_fract_z
 _atom_site_occupancy
  N  N0  1  0.25016463  0.75000000  0.00000000  1
  N  N1  1  0.25016463  0.25000000  0.00000000  1
  N  N2  1  0.99983537  0.50000000  0.50000000  1
  N  N3  1  0.99983537  -0.00000000  0.50000000  1
  N  N4  1  0.75022135  0.75000000  0.00000000  1
  N  N5  1  0.75022135  0.25000000  0.00000000  1
  N  N6  1  0.49977865  0.50000000  0.50000000  1
  N  N7  1  0.49977865  -0.00000000  0.50000000  1
  Hf  Hf8  1  0.25289863  0.25000000  0.50000000  1
  Hf  Hf9  1  0.25289863  0.75000000  0.50000000  1
  Hf  Hf10  1  0.99710137  -0.00000000  -0.00000000  1
  Hf  Hf11  1  0.99710137  0.50000000  -0.00000000  1
  Ta  Ta12  1  0.74731759  0.25000000  0.50000000  1
  Ta  Ta13  1  0.74731759  0.75000000  0.50000000  1
  Ta  Ta14  1  0.50268241  -0.00000000  -0.00000000  1
  Ta  Ta15  1  0.50268241  0.50000000  -0.00000000  1
