# generated using pymatgen
data_Hf2Ta2C3N
_symmetry_space_group_name_H-M   'P 1'
_cell_length_a   6.40364794
_cell_length_b   6.40751368
_cell_length_c   9.13713930
_cell_angle_alpha   90.13611148
_cell_angle_beta   89.95471006
_cell_angle_gamma   90.20256263
_symmetry_Int_Tables_number   1
_chemical_formula_structural   Hf2Ta2C3N
_chemical_formula_sum   'Hf8 Ta8 C12 N4'
_cell_volume   374.90666649
_cell_formula_units_Z   4
loop_
 _symmetry_equiv_pos_site_id
 _symmetry_equiv_pos_as_xyz
  1  'x, y, z'
loop_
 _atom_site_type_symbol
 _atom_site_label
 _atom_site_symmetry_multiplicity
 _atom_site_fract_x
 _atom_site_fract_y
 _atom_site_fract_z
 _atom_site_occupancy
  C  C0  1  0.74565780  0.75187366  0.49656285  1
  C  C1  1  0.74490578  0.24647184  0.49853646  1
  C  C2  1  0.25257400  0.75155591  0.49957820  1
  C  C3  1  0.25451746  0.24671758  0.49679397  1
  C  C4  1  0.49850516  0.50298740  0.25181996  1
  C  C5  1  0.74452638  0.24629375  0.00057889  1
  C  C6  1  0.00289659  0.50299089  0.25065148  1
  C  C7  1  0.00221054  0.99619169  0.25070521  1
  C  C8  1  0.25459312  0.24730248  0.00211447  1
  C  C9  1  0.49855446  0.99891370  0.74934485  1
  C  C10  1  0.00330712  0.50538879  0.75060383  1
  C  C11  1  0.00405613  0.99534526  0.74886513  1
  Hf  Hf12  1  0.75330916  0.24835580  0.74888876  1
  Hf  Hf13  1  0.74900436  0.74897294  0.74706665  1
  Hf  Hf14  1  0.25219294  0.25281981  0.74996559  1
  Hf  Hf15  1  0.74620037  0.24332090  0.25078755  1
  Hf  Hf16  1  0.99974306  0.49794070  0.50135904  1
  Hf  Hf17  1  0.49915734  0.50311257  0.00798817  1
  Hf  Hf18  1  0.00206686  0.99675212  0.00357695  1
  Hf  Hf19  1  0.00177956  0.49684131  0.99944044  1
  N  N20  1  0.49730700  0.99345609  0.24848700  1
  N  N21  1  0.74578351  0.75298101  0.00119465  1
  N  N22  1  0.25464778  0.75365188  0.00267907  1
  N  N23  1  0.49731938  0.50572289  0.75273366  1
  Ta  Ta24  1  0.24478946  0.75591989  0.73795538  1
  Ta  Ta25  1  0.49917412  0.00117171  0.51248364  1
  Ta  Ta26  1  0.49992509  0.49798512  0.48903584  1
  Ta  Ta27  1  0.76102065  0.74127333  0.25599916  1
  Ta  Ta28  1  0.00077346  0.00060249  0.49448628  1
  Ta  Ta29  1  0.24146428  0.25660044  0.25039966  1
  Ta  Ta30  1  0.25012909  0.75156600  0.26379097  1
  Ta  Ta31  1  0.49790800  0.00892002  0.98552624  1
