# generated using pymatgen
data_Hf2Ta2CN3
_symmetry_space_group_name_H-M   'P 1'
_cell_length_a   6.38176132
_cell_length_b   6.37407969
_cell_length_c   8.97642302
_cell_angle_alpha   89.74743829
_cell_angle_beta   89.50611739
_cell_angle_gamma   89.53147748
_symmetry_Int_Tables_number   1
_chemical_formula_structural   Hf2Ta2CN3
_chemical_formula_sum   'Hf8 Ta8 C4 N12'
_cell_volume   365.11242795
_cell_formula_units_Z   4
loop_
 _symmetry_equiv_pos_site_id
 _symmetry_equiv_pos_as_xyz
  1  'x, y, z'
loop_
 _atom_site_type_symbol
 _atom_site_label
 _atom_site_symmetry_multiplicity
 _atom_site_fract_x
 _atom_site_fract_y
 _atom_site_fract_z
 _atom_site_occupancy
  N  N0  1  0.76265513  0.76199665  0.49752388  1
  N  N1  1  0.74204372  0.24508389  0.50006191  1
  N  N2  1  0.23966098  0.74463825  0.49877054  1
  N  N3  1  0.26771217  0.26094860  0.50066311  1
  N  N4  1  0.49077401  0.49704901  0.25403006  1
  N  N5  1  0.75032440  0.24760842  0.00123146  1
  N  N6  1  0.00176819  0.50092442  0.25014074  1
  N  N7  1  0.98997307  0.99046613  0.24710474  1
  N  N8  1  0.24778327  0.24634476  0.00142644  1
  N  N9  1  0.50193240  0.00235446  0.74946934  1
  N  N10  1  0.00351328  0.49967298  0.74830529  1
  N  N11  1  0.00415405  0.00153962  0.74695314  1
  Hf  Hf12  1  0.74654108  0.25313688  0.74572316  1
  Hf  Hf13  1  0.74782273  0.75014051  0.75081171  1
  Hf  Hf14  1  0.25516576  0.25036607  0.74523663  1
  Hf  Hf15  1  0.74598145  0.24704009  0.25485420  1
  Hf  Hf16  1  0.99918168  0.49979729  0.49613721  1
  Hf  Hf17  1  0.49878896  0.49946817  0.99816823  1
  Hf  Hf18  1  0.00018458  0.99762271  0.00151006  1
  Hf  Hf19  1  0.00063092  0.50715445  0.00240011  1
  C  C20  1  0.49967334  0.00308192  0.24988789  1
  C  C21  1  0.74883646  0.75075159  0.00239435  1
  C  C22  1  0.25059755  0.75070189  0.00048025  1
  C  C23  1  0.50048565  0.49903263  0.74970539  1
  Ta  Ta24  1  0.26040316  0.74605732  0.75373858  1
  Ta  Ta25  1  0.48897555  0.98447801  0.49386290  1
  Ta  Ta26  1  0.50592489  0.51613408  0.50815189  1
  Ta  Ta27  1  0.73502000  0.75565044  0.24652566  1
  Ta  Ta28  1  0.01503105  0.01460499  0.49023490  1
  Ta  Ta29  1  0.24431495  0.22780083  0.26140008  1
  Ta  Ta30  1  0.25556667  0.76170504  0.24585875  1
  Ta  Ta31  1  0.49857889  0.98664790  0.00723738  1
