# generated using pymatgen
data_HfTaC2
_symmetry_space_group_name_H-M   'P 1'
_cell_length_a   6.45025865
_cell_length_b   6.43429978
_cell_length_c   4.55432917
_cell_angle_alpha   90.00000000
_cell_angle_beta   90.00000000
_cell_angle_gamma   90.00000000
_symmetry_Int_Tables_number   1
_chemical_formula_structural   HfTaC2
_chemical_formula_sum   'Hf4 Ta4 C8'
_cell_volume   189.01785815
_cell_formula_units_Z   4
loop_
 _symmetry_equiv_pos_site_id
 _symmetry_equiv_pos_as_xyz
  1  'x, y, z'
loop_
 _atom_site_type_symbol
 _atom_site_label
 _atom_site_symmetry_multiplicity
 _atom_site_fract_x
 _atom_site_fract_y
 _atom_site_fract_z
 _atom_site_occupancy
  C  C0  1  0.25684641  0.75000000  0.00000000  1
  C  C1  1  0.25684641  0.25000000  0.00000000  1
  C  C2  1  0.99315359  0.50000000  0.50000000  1
  C  C3  1  0.99315359  0.00000000  0.50000000  1
  C  C4  1  0.74450537  0.75000000  0.00000000  1
  C  C5  1  0.74450537  0.25000000  0.00000000  1
  C  C6  1  0.50549463  0.50000000  0.50000000  1
  C  C7  1  0.50549463  0.00000000  0.50000000  1
  Hf  Hf8  1  0.25141126  0.25000000  0.50000000  1
  Hf  Hf9  1  0.25141126  0.75000000  0.50000000  1
  Hf  Hf10  1  0.99858874  0.00000000  0.00000000  1
  Hf  Hf11  1  0.99858874  0.50000000  0.00000000  1
  Ta  Ta12  1  0.74900637  0.25000000  0.50000000  1
  Ta  Ta13  1  0.74900637  0.75000000  0.50000000  1
  Ta  Ta14  1  0.50099363  0.00000000  0.00000000  1
  Ta  Ta15  1  0.50099363  0.50000000  0.00000000  1
