# generated using pymatgen
data_HfTaCN
_symmetry_space_group_name_H-M   'P 1'
_cell_length_a   6.42745278
_cell_length_b   6.40366781
_cell_length_c   4.49374399
_cell_angle_alpha   90.00000000
_cell_angle_beta   90.00000000
_cell_angle_gamma   90.00000000
_symmetry_Int_Tables_number   1
_chemical_formula_structural   HfTaCN
_chemical_formula_sum   'Hf4 Ta4 C4 N4'
_cell_volume   184.95923328
_cell_formula_units_Z   4
loop_
 _symmetry_equiv_pos_site_id
 _symmetry_equiv_pos_as_xyz
  1  'x, y, z'
loop_
 _atom_site_type_symbol
 _atom_site_label
 _atom_site_symmetry_multiplicity
 _atom_site_fract_x
 _atom_site_fract_y
 _atom_site_fract_z
 _atom_site_occupancy
  C  C0  1  0.25101354  0.75000000  0.00000000  1
  C  C1  1  0.00000000  0.49930685  0.50000000  1
  C  C2  1  0.00000000  0.00069315  0.50000000  1
  C  C3  1  0.74898646  0.75000000  0.00000000  1
  Hf  Hf4  1  0.24529235  0.25000000  0.50000000  1
  Hf  Hf5  1  0.00000000  0.99227350  0.00000000  1
  Hf  Hf6  1  0.00000000  0.50772650  0.00000000  1
  Hf  Hf7  1  0.75470765  0.25000000  0.50000000  1
  N  N8  1  0.25982888  0.25000000  0.00000000  1
  N  N9  1  0.74017112  0.25000000  0.00000000  1
  N  N10  1  0.50000000  0.49856277  0.50000000  1
  N  N11  1  0.50000000  0.00143723  0.50000000  1
  Ta  Ta12  1  0.24304221  0.75000000  0.50000000  1
  Ta  Ta13  1  0.75695779  0.75000000  0.50000000  1
  Ta  Ta14  1  0.50000000  0.97981650  0.00000000  1
  Ta  Ta15  1  0.50000000  0.52018350  0.00000000  1
