# generated using pymatgen
data_Ti4Al2NO
_symmetry_space_group_name_H-M   'P 1'
_cell_length_a   5.89316975
_cell_length_b   2.94339153
_cell_length_c   13.48581444
_cell_angle_alpha   90.00000000
_cell_angle_beta   90.00000000
_cell_angle_gamma   119.96415665
_symmetry_Int_Tables_number   1
_chemical_formula_structural   Ti4Al2NO
_chemical_formula_sum   'Ti8 Al4 N2 O2'
_cell_volume   202.65696948
_cell_formula_units_Z   2
loop_
 _symmetry_equiv_pos_site_id
 _symmetry_equiv_pos_as_xyz
  1  'x, y, z'
loop_
 _atom_site_type_symbol
 _atom_site_label
 _atom_site_symmetry_multiplicity
 _atom_site_fract_x
 _atom_site_fract_y
 _atom_site_fract_z
 _atom_site_occupancy
  Ti  Ti0  1  0.17196408  0.67196409  0.08971807  1
  Ti  Ti1  1  0.33689819  0.33689818  0.58789331  1
  Ti  Ti2  1  0.33689819  0.33689818  0.91210669  1
  Ti  Ti3  1  0.17196408  0.67196409  0.41028193  1
  Ti  Ti4  1  0.66310182  0.66310182  0.08789331  1
  Ti  Ti5  1  0.82803591  0.32803591  0.58971807  1
  Ti  Ti6  1  0.82803591  0.32803591  0.91028193  1
  Ti  Ti7  1  0.66310182  0.66310182  0.41210669  1
  Al  Al8  1  0.16672426  0.66672427  0.75000000  1
  Al  Al9  1  0.33459782  0.33459781  0.25000000  1
  Al  Al10  1  0.66540219  0.66540219  0.75000000  1
  Al  Al11  1  0.83327573  0.33327573  0.25000000  1
  O  O12  1  -0.00000000  -0.00000000  0.00000000  1
  O  O13  1  -0.00000000  -0.00000000  0.50000000  1
  N  N14  1  0.50000000  -0.00000000  0.00000000  1
  N  N15  1  0.50000000  -0.00000000  0.50000000  1
