# generated using pymatgen
data_Ti4Al2NO
_symmetry_space_group_name_H-M   'P 1'
_cell_length_a   5.93539402
_cell_length_b   2.96692113
_cell_length_c   13.55849516
_cell_angle_alpha   90.00000000
_cell_angle_beta   90.00000000
_cell_angle_gamma   119.99135720
_symmetry_Int_Tables_number   1
_chemical_formula_structural   Ti4Al2NO
_chemical_formula_sum   'Ti8 Al4 N2 O2'
_cell_volume   206.79283839
_cell_formula_units_Z   2
loop_
 _symmetry_equiv_pos_site_id
 _symmetry_equiv_pos_as_xyz
  1  'x, y, z'
loop_
 _atom_site_type_symbol
 _atom_site_label
 _atom_site_symmetry_multiplicity
 _atom_site_fract_x
 _atom_site_fract_y
 _atom_site_fract_z
 _atom_site_occupancy
  Ti  Ti0  1  0.17243995  0.67243996  0.08934888  1
  Ti  Ti1  1  0.33697896  0.33697895  0.58744561  1
  Ti  Ti2  1  0.33697896  0.33697895  0.91255439  1
  Ti  Ti3  1  0.17243995  0.67243996  0.41065112  1
  Ti  Ti4  1  0.66302105  0.66302105  0.08744561  1
  Ti  Ti5  1  0.82756004  0.32756004  0.58934888  1
  Ti  Ti6  1  0.82756004  0.32756004  0.91065112  1
  Ti  Ti7  1  0.66302105  0.66302105  0.41255439  1
  Al  Al8  1  0.16662607  0.66662608  0.75000000  1
  Al  Al9  1  0.33420019  0.33420018  0.25000000  1
  Al  Al10  1  0.66579982  0.66579982  0.75000000  1
  Al  Al11  1  0.83337392  0.33337392  0.25000000  1
  O  O12  1  0.00000000  -0.00000000  0.00000000  1
  O  O13  1  0.00000000  -0.00000000  0.50000000  1
  N  N14  1  0.50000000  -0.00000000  0.00000000  1
  N  N15  1  0.50000000  -0.00000000  0.50000000  1
