# generated using pymatgen
data_Ti4Al2NO
_symmetry_space_group_name_H-M   'P 1'
_cell_length_a   5.84803940
_cell_length_b   2.92143821
_cell_length_c   13.41347892
_cell_angle_alpha   90.00000000
_cell_angle_beta   90.00000000
_cell_angle_gamma   119.97079350
_symmetry_Int_Tables_number   1
_chemical_formula_structural   Ti4Al2NO
_chemical_formula_sum   'Ti8 Al4 N2 O2'
_cell_volume   198.52115703
_cell_formula_units_Z   2
loop_
 _symmetry_equiv_pos_site_id
 _symmetry_equiv_pos_as_xyz
  1  'x, y, z'
loop_
 _atom_site_type_symbol
 _atom_site_label
 _atom_site_symmetry_multiplicity
 _atom_site_fract_x
 _atom_site_fract_y
 _atom_site_fract_z
 _atom_site_occupancy
  Ti  Ti0  1  0.17159907  0.67159908  0.09014839  1
  Ti  Ti1  1  0.33661033  0.33661032  0.58838263  1
  Ti  Ti2  1  0.33661033  0.33661032  0.91161737  1
  Ti  Ti3  1  0.17159907  0.67159908  0.40985161  1
  Ti  Ti4  1  0.66338968  0.66338968  0.08838263  1
  Ti  Ti5  1  0.82840092  0.32840092  0.59014839  1
  Ti  Ti6  1  0.82840092  0.32840092  0.90985161  1
  Ti  Ti7  1  0.66338968  0.66338968  0.41161737  1
  Al  Al8  1  0.16675030  0.66675031  0.75000000  1
  Al  Al9  1  0.33452948  0.33452947  0.25000000  1
  Al  Al10  1  0.66547053  0.66547053  0.75000000  1
  Al  Al11  1  0.83324969  0.33324969  0.25000000  1
  O  O12  1  0.00000000  0.00000000  0.00000000  1
  O  O13  1  0.00000000  0.00000000  0.50000000  1
  N  N14  1  0.50000000  0.00000000  0.00000000  1
  N  N15  1  0.50000000  0.00000000  0.50000000  1
