# generated using pymatgen
data_Ti4Al2NO
_symmetry_space_group_name_H-M   'P 1'
_cell_length_a   6.06321706
_cell_length_b   3.03257353
_cell_length_c   13.76709722
_cell_angle_alpha   90.00000000
_cell_angle_beta   90.00000000
_cell_angle_gamma   120.01053482
_symmetry_Int_Tables_number   1
_chemical_formula_structural   Ti4Al2NO
_chemical_formula_sum   'Ti8 Al4 N2 O2'
_cell_volume   219.20040636
_cell_formula_units_Z   2
loop_
 _symmetry_equiv_pos_site_id
 _symmetry_equiv_pos_as_xyz
  1  'x, y, z'
loop_
 _atom_site_type_symbol
 _atom_site_label
 _atom_site_symmetry_multiplicity
 _atom_site_fract_x
 _atom_site_fract_y
 _atom_site_fract_z
 _atom_site_occupancy
  Ti  Ti0  1  0.17357752  0.67357753  0.08798250  1
  Ti  Ti1  1  0.33805944  0.33805943  0.58592590  1
  Ti  Ti2  1  0.33805944  0.33805943  0.91407410  1
  Ti  Ti3  1  0.17357752  0.67357753  0.41201750  1
  Ti  Ti4  1  0.66194057  0.66194057  0.08592590  1
  Ti  Ti5  1  0.82642247  0.32642247  0.58798250  1
  Ti  Ti6  1  0.82642247  0.32642247  0.91201750  1
  Ti  Ti7  1  0.66194057  0.66194057  0.41407410  1
  Al  Al8  1  0.16658175  0.66658176  0.75000000  1
  Al  Al9  1  0.33412240  0.33412239  0.25000000  1
  Al  Al10  1  0.66587761  0.66587761  0.75000000  1
  Al  Al11  1  0.83341824  0.33341824  0.25000000  1
  O  O12  1  0.00000000  -0.00000000  -0.00000000  1
  O  O13  1  0.00000000  -0.00000000  0.50000000  1
  N  N14  1  0.50000000  -0.00000000  -0.00000000  1
  N  N15  1  0.50000000  -0.00000000  0.50000000  1
