# generated using pymatgen
data_Ti4Al2NO
_symmetry_space_group_name_H-M   'P 1'
_cell_length_a   5.97838863
_cell_length_b   2.98885815
_cell_length_c   13.63010839
_cell_angle_alpha   90.00000000
_cell_angle_beta   90.00000000
_cell_angle_gamma   119.99628497
_symmetry_Int_Tables_number   1
_chemical_formula_structural   Ti4Al2NO
_chemical_formula_sum   'Ti8 Al4 N2 O2'
_cell_volume   210.92868512
_cell_formula_units_Z   2
loop_
 _symmetry_equiv_pos_site_id
 _symmetry_equiv_pos_as_xyz
  1  'x, y, z'
loop_
 _atom_site_type_symbol
 _atom_site_label
 _atom_site_symmetry_multiplicity
 _atom_site_fract_x
 _atom_site_fract_y
 _atom_site_fract_z
 _atom_site_occupancy
  Ti  Ti0  1  0.17271951  0.67271952  0.08889820  1
  Ti  Ti1  1  0.33726892  0.33726891  0.58691551  1
  Ti  Ti2  1  0.33726892  0.33726891  0.91308449  1
  Ti  Ti3  1  0.17271951  0.67271952  0.41110180  1
  Ti  Ti4  1  0.66273109  0.66273109  0.08691551  1
  Ti  Ti5  1  0.82728048  0.32728048  0.58889820  1
  Ti  Ti6  1  0.82728048  0.32728048  0.91110180  1
  Ti  Ti7  1  0.66273109  0.66273109  0.41308449  1
  Al  Al8  1  0.16667409  0.66667410  0.75000000  1
  Al  Al9  1  0.33430491  0.33430490  0.25000000  1
  Al  Al10  1  0.66569510  0.66569510  0.75000000  1
  Al  Al11  1  0.83332590  0.33332590  0.25000000  1
  O  O12  1  -0.00000000  0.00000000  -0.00000000  1
  O  O13  1  -0.00000000  0.00000000  0.50000000  1
  N  N14  1  0.50000000  0.00000000  -0.00000000  1
  N  N15  1  0.50000000  0.00000000  0.50000000  1
