# generated using pymatgen
data_Ti4Al2NO
_symmetry_space_group_name_H-M   'P 1'
_cell_length_a   6.10607430
_cell_length_b   3.04763539
_cell_length_c   13.84993928
_cell_angle_alpha   90.00000000
_cell_angle_beta   90.00000000
_cell_angle_gamma   119.94148913
_symmetry_Int_Tables_number   1
_chemical_formula_structural   Ti4Al2NO
_chemical_formula_sum   'Ti8 Al4 N2 O2'
_cell_volume   223.33631704
_cell_formula_units_Z   2
loop_
 _symmetry_equiv_pos_site_id
 _symmetry_equiv_pos_as_xyz
  1  'x, y, z'
loop_
 _atom_site_type_symbol
 _atom_site_label
 _atom_site_symmetry_multiplicity
 _atom_site_fract_x
 _atom_site_fract_y
 _atom_site_fract_z
 _atom_site_occupancy
  Ti  Ti0  1  0.17391620  0.67391621  0.08756978  1
  Ti  Ti1  1  0.33825951  0.33825950  0.58550411  1
  Ti  Ti2  1  0.33825951  0.33825950  0.91449589  1
  Ti  Ti3  1  0.17391620  0.67391621  0.41243022  1
  Ti  Ti4  1  0.66174050  0.66174050  0.08550411  1
  Ti  Ti5  1  0.82608379  0.32608379  0.58756978  1
  Ti  Ti6  1  0.82608379  0.32608379  0.91243022  1
  Ti  Ti7  1  0.66174050  0.66174050  0.41449589  1
  Al  Al8  1  0.16650113  0.66650114  0.75000000  1
  Al  Al9  1  0.33471854  0.33471853  0.25000000  1
  Al  Al10  1  0.66528147  0.66528147  0.75000000  1
  Al  Al11  1  0.83349886  0.33349886  0.25000000  1
  O  O12  1  -0.00000000  0.00000000  -0.00000000  1
  O  O13  1  -0.00000000  0.00000000  0.50000000  1
  N  N14  1  0.50000000  0.00000000  -0.00000000  1
  N  N15  1  0.50000000  0.00000000  0.50000000  1
