# generated using pymatgen
data_Ti8Al4N3O
_symmetry_space_group_name_H-M   'P 1'
_cell_length_a   5.98009595
_cell_length_b   5.97979166
_cell_length_c   13.60739442
_cell_angle_alpha   90.00000000
_cell_angle_beta   90.00000000
_cell_angle_gamma   119.99831677
_symmetry_Int_Tables_number   1
_chemical_formula_structural   Ti8Al4N3O
_chemical_formula_sum   'Ti16 Al8 N6 O2'
_cell_volume   421.41226970
_cell_formula_units_Z   2
loop_
 _symmetry_equiv_pos_site_id
 _symmetry_equiv_pos_as_xyz
  1  'x, y, z'
loop_
 _atom_site_type_symbol
 _atom_site_label
 _atom_site_symmetry_multiplicity
 _atom_site_fract_x
 _atom_site_fract_y
 _atom_site_fract_z
 _atom_site_occupancy
  Ti  Ti0  1  0.16671788  0.33335896  0.08573656  1
  Ti  Ti1  1  0.33098333  0.16184897  0.58684258  1
  Ti  Ti2  1  0.33098333  0.16913433  0.91315742  1
  Ti  Ti3  1  0.16186584  0.33093293  0.41301477  1
  Ti  Ti4  1  0.16186584  0.83093292  0.08698523  1
  Ti  Ti5  1  0.33098333  0.66913434  0.58684258  1
  Ti  Ti6  1  0.33098333  0.66184898  0.91315742  1
  Ti  Ti7  1  0.16671788  0.83335895  0.41426344  1
  Ti  Ti8  1  0.66901668  0.33815103  0.08684258  1
  Ti  Ti9  1  0.83328211  0.16664104  0.58573656  1
  Ti  Ti10  1  0.83813415  0.16906707  0.91301477  1
  Ti  Ti11  1  0.66901668  0.33086567  0.41315742  1
  Ti  Ti12  1  0.66901668  0.83086566  0.08684258  1
  Ti  Ti13  1  0.83813415  0.66906708  0.58698523  1
  Ti  Ti14  1  0.83328211  0.66664105  0.91426344  1
  Ti  Ti15  1  0.66901668  0.83815102  0.41315742  1
  Al  Al16  1  0.16686056  0.33343029  0.74975663  1
  Al  Al17  1  0.33357944  0.16678971  0.25000000  1
  Al  Al18  1  0.16686056  0.83343028  0.75024337  1
  Al  Al19  1  0.33357944  0.66678972  0.25000000  1
  Al  Al20  1  0.66642057  0.33321029  0.75000000  1
  Al  Al21  1  0.83313943  0.16656971  0.24975663  1
  Al  Al22  1  0.66642057  0.83321028  0.75000000  1
  Al  Al23  1  0.83313943  0.66656972  0.25024337  1
  N  N24  1  0.00000000  -0.00000000  -0.00000000  1
  N  N25  1  0.00000000  -0.00000000  0.50000000  1
  N  N26  1  0.00000000  0.50000000  -0.00000000  1
  N  N27  1  0.00000000  0.50000000  0.50000000  1
  N  N28  1  0.50000000  -0.00000000  0.50000000  1
  N  N29  1  0.50000000  0.50000000  -0.00000000  1
  O  O30  1  0.50000000  -0.00000000  -0.00000000  1
  O  O31  1  0.50000000  0.50000000  0.50000000  1
