# generated using pymatgen
data_Ti8Al4N3O
_symmetry_space_group_name_H-M   'P 1'
_cell_length_a   6.02134878
_cell_length_b   6.02112457
_cell_length_c   13.70528811
_cell_angle_alpha   90.00000000
_cell_angle_beta   90.00000000
_cell_angle_gamma   119.99876821
_symmetry_Int_Tables_number   1
_chemical_formula_structural   Ti8Al4N3O
_chemical_formula_sum   'Ti16 Al8 N6 O2'
_cell_volume   430.32401979
_cell_formula_units_Z   2
loop_
 _symmetry_equiv_pos_site_id
 _symmetry_equiv_pos_as_xyz
  1  'x, y, z'
loop_
 _atom_site_type_symbol
 _atom_site_label
 _atom_site_symmetry_multiplicity
 _atom_site_fract_x
 _atom_site_fract_y
 _atom_site_fract_z
 _atom_site_occupancy
  Ti  Ti0  1  0.16672581  0.33336292  0.08519305  1
  Ti  Ti1  1  0.33081582  0.16150587  0.58632546  1
  Ti  Ti2  1  0.33081582  0.16930993  0.91367454  1
  Ti  Ti3  1  0.16153490  0.33076746  0.41354052  1
  Ti  Ti4  1  0.16153490  0.83076745  0.08645948  1
  Ti  Ti5  1  0.33081582  0.66930994  0.58632546  1
  Ti  Ti6  1  0.33081582  0.66150588  0.91367454  1
  Ti  Ti7  1  0.16672581  0.83336291  0.41480695  1
  Ti  Ti8  1  0.66918419  0.33849413  0.08632546  1
  Ti  Ti9  1  0.83327418  0.16663708  0.58519305  1
  Ti  Ti10  1  0.83846509  0.16923254  0.91354052  1
  Ti  Ti11  1  0.66918419  0.33069007  0.41367454  1
  Ti  Ti12  1  0.66918419  0.83069006  0.08632546  1
  Ti  Ti13  1  0.83846509  0.66923255  0.58645948  1
  Ti  Ti14  1  0.83327418  0.66663709  0.91480695  1
  Ti  Ti15  1  0.66918419  0.83849412  0.41367454  1
  Al  Al16  1  0.16686271  0.33343136  0.74977549  1
  Al  Al17  1  0.33358313  0.16679156  0.25000000  1
  Al  Al18  1  0.16686271  0.83343135  0.75022451  1
  Al  Al19  1  0.33358313  0.66679157  0.25000000  1
  Al  Al20  1  0.66641688  0.33320844  0.75000000  1
  Al  Al21  1  0.83313728  0.16656864  0.24977549  1
  Al  Al22  1  0.66641688  0.83320843  0.75000000  1
  Al  Al23  1  0.83313728  0.66656865  0.25022451  1
  N  N24  1  -0.00000000  -0.00000000  -0.00000000  1
  N  N25  1  -0.00000000  -0.00000000  0.50000000  1
  N  N26  1  -0.00000000  0.50000000  -0.00000000  1
  N  N27  1  -0.00000000  0.50000000  0.50000000  1
  N  N28  1  0.50000000  -0.00000000  0.50000000  1
  N  N29  1  0.50000000  0.50000000  -0.00000000  1
  O  O30  1  0.50000000  -0.00000000  -0.00000000  1
  O  O31  1  0.50000000  0.50000000  0.50000000  1
