# generated using pymatgen
data_Ti8Al4N3O
_symmetry_space_group_name_H-M   'P 1'
_cell_length_a   6.05711296
_cell_length_b   6.05696300
_cell_length_c   13.78734691
_cell_angle_alpha   90.00000000
_cell_angle_beta   90.00000000
_cell_angle_gamma   119.99918091
_symmetry_Int_Tables_number   1
_chemical_formula_structural   Ti8Al4N3O
_chemical_formula_sum   'Ti16 Al8 N6 O2'
_cell_volume   438.06193068
_cell_formula_units_Z   2
loop_
 _symmetry_equiv_pos_site_id
 _symmetry_equiv_pos_as_xyz
  1  'x, y, z'
loop_
 _atom_site_type_symbol
 _atom_site_label
 _atom_site_symmetry_multiplicity
 _atom_site_fract_x
 _atom_site_fract_y
 _atom_site_fract_z
 _atom_site_occupancy
  Ti  Ti0  1  0.16673711  0.33336857  0.08472146  1
  Ti  Ti1  1  0.33066478  0.16119799  0.58587341  1
  Ti  Ti2  1  0.33066478  0.16946677  0.91412659  1
  Ti  Ti3  1  0.16123551  0.33061777  0.41400242  1
  Ti  Ti4  1  0.16123551  0.83061776  0.08599758  1
  Ti  Ti5  1  0.33066478  0.66946678  0.58587341  1
  Ti  Ti6  1  0.33066478  0.66119800  0.91412659  1
  Ti  Ti7  1  0.16673711  0.83336856  0.41527854  1
  Ti  Ti8  1  0.66933523  0.33880201  0.08587341  1
  Ti  Ti9  1  0.83326288  0.16663143  0.58472146  1
  Ti  Ti10  1  0.83876448  0.16938223  0.91400242  1
  Ti  Ti11  1  0.66933523  0.33053323  0.41412659  1
  Ti  Ti12  1  0.66933523  0.83053322  0.08587341  1
  Ti  Ti13  1  0.83876448  0.66938224  0.58599758  1
  Ti  Ti14  1  0.83326288  0.66663144  0.91527854  1
  Ti  Ti15  1  0.66933523  0.83880200  0.41412659  1
  Al  Al16  1  0.16685550  0.33342775  0.74979677  1
  Al  Al17  1  0.33357670  0.16678834  0.25000000  1
  Al  Al18  1  0.16685550  0.83342774  0.75020323  1
  Al  Al19  1  0.33357670  0.66678835  0.25000000  1
  Al  Al20  1  0.66642331  0.33321166  0.75000000  1
  Al  Al21  1  0.83314449  0.16657225  0.24979677  1
  Al  Al22  1  0.66642331  0.83321165  0.75000000  1
  Al  Al23  1  0.83314449  0.66657226  0.25020323  1
  N  N24  1  -0.00000000  -0.00000000  -0.00000000  1
  N  N25  1  -0.00000000  -0.00000000  0.50000000  1
  N  N26  1  -0.00000000  0.50000000  -0.00000000  1
  N  N27  1  -0.00000000  0.50000000  0.50000000  1
  N  N28  1  0.50000000  -0.00000000  0.50000000  1
  N  N29  1  0.50000000  0.50000000  -0.00000000  1
  O  O30  1  0.50000000  -0.00000000  -0.00000000  1
  O  O31  1  0.50000000  0.50000000  0.50000000  1
