# generated using pymatgen
data_Ti8Al4N3O
_symmetry_space_group_name_H-M   'P 1'
_cell_length_a   5.89945990
_cell_length_b   5.89952093
_cell_length_c   13.40231396
_cell_angle_alpha   90.00000000
_cell_angle_beta   90.00000000
_cell_angle_gamma   120.00034211
_symmetry_Int_Tables_number   1
_chemical_formula_structural   Ti8Al4N3O
_chemical_formula_sum   'Ti16 Al8 N6 O2'
_cell_volume   403.95958879
_cell_formula_units_Z   2
loop_
 _symmetry_equiv_pos_site_id
 _symmetry_equiv_pos_as_xyz
  1  'x, y, z'
loop_
 _atom_site_type_symbol
 _atom_site_label
 _atom_site_symmetry_multiplicity
 _atom_site_fract_x
 _atom_site_fract_y
 _atom_site_fract_z
 _atom_site_occupancy
  Ti  Ti0  1  0.16670289  0.33335146  0.08682801  1
  Ti  Ti1  1  0.33132906  0.16253481  0.58783821  1
  Ti  Ti2  1  0.33132906  0.16879423  0.91216179  1
  Ti  Ti3  1  0.16253282  0.33126642  0.41197733  1
  Ti  Ti4  1  0.16253282  0.83126641  0.08802267  1
  Ti  Ti5  1  0.33132906  0.66879424  0.58783821  1
  Ti  Ti6  1  0.33132906  0.66253482  0.91216179  1
  Ti  Ti7  1  0.16670289  0.83335145  0.41317199  1
  Ti  Ti8  1  0.66867095  0.33746519  0.08783821  1
  Ti  Ti9  1  0.83329710  0.16664854  0.58682801  1
  Ti  Ti10  1  0.83746717  0.16873358  0.91197733  1
  Ti  Ti11  1  0.66867095  0.33120577  0.41216179  1
  Ti  Ti12  1  0.66867095  0.83120576  0.08783821  1
  Ti  Ti13  1  0.83746717  0.66873359  0.58802267  1
  Ti  Ti14  1  0.83329710  0.66664855  0.91317199  1
  Ti  Ti15  1  0.66867095  0.83746518  0.41216179  1
  Al  Al16  1  0.16677301  0.33338651  0.74967010  1
  Al  Al17  1  0.33347131  0.16673565  0.25000000  1
  Al  Al18  1  0.16677301  0.83338650  0.75032990  1
  Al  Al19  1  0.33347131  0.66673566  0.25000000  1
  Al  Al20  1  0.66652870  0.33326435  0.75000000  1
  Al  Al21  1  0.83322698  0.16661349  0.24967010  1
  Al  Al22  1  0.66652870  0.83326434  0.75000000  1
  Al  Al23  1  0.83322698  0.66661350  0.25032990  1
  N  N24  1  -0.00000000  -0.00000000  0.00000000  1
  N  N25  1  -0.00000000  -0.00000000  0.50000000  1
  N  N26  1  -0.00000000  0.50000000  0.00000000  1
  N  N27  1  -0.00000000  0.50000000  0.50000000  1
  N  N28  1  0.50000000  -0.00000000  0.50000000  1
  N  N29  1  0.50000000  0.50000000  0.00000000  1
  O  O30  1  0.50000000  -0.00000000  0.00000000  1
  O  O31  1  0.50000000  0.50000000  0.50000000  1
