# generated using pymatgen
data_Ti8Al4N3O
_symmetry_space_group_name_H-M   'P 1'
_cell_length_a   6.09838242
_cell_length_b   6.09834915
_cell_length_c   13.88511016
_cell_angle_alpha   90.00000000
_cell_angle_beta   90.00000000
_cell_angle_gamma   119.99981953
_symmetry_Int_Tables_number   1
_chemical_formula_structural   Ti8Al4N3O
_chemical_formula_sum   'Ti16 Al8 N6 O2'
_cell_volume   447.20607187
_cell_formula_units_Z   2
loop_
 _symmetry_equiv_pos_site_id
 _symmetry_equiv_pos_as_xyz
  1  'x, y, z'
loop_
 _atom_site_type_symbol
 _atom_site_label
 _atom_site_symmetry_multiplicity
 _atom_site_fract_x
 _atom_site_fract_y
 _atom_site_fract_z
 _atom_site_occupancy
  Ti  Ti0  1  0.16681543  0.33340773  0.08416647  1
  Ti  Ti1  1  0.33054575  0.16084502  0.58531363  1
  Ti  Ti2  1  0.33054575  0.16970071  0.91468637  1
  Ti  Ti3  1  0.16093812  0.33046908  0.41456510  1
  Ti  Ti4  1  0.16093812  0.83046907  0.08543490  1
  Ti  Ti5  1  0.33054575  0.66970072  0.58531363  1
  Ti  Ti6  1  0.33054575  0.66084503  0.91468637  1
  Ti  Ti7  1  0.16681543  0.83340772  0.41583353  1
  Ti  Ti8  1  0.66945426  0.33915498  0.08531363  1
  Ti  Ti9  1  0.83318456  0.16659227  0.58416647  1
  Ti  Ti10  1  0.83906187  0.16953092  0.91456510  1
  Ti  Ti11  1  0.66945426  0.33029929  0.41468637  1
  Ti  Ti12  1  0.66945426  0.83029928  0.08531363  1
  Ti  Ti13  1  0.83906187  0.66953093  0.58543490  1
  Ti  Ti14  1  0.83318456  0.66659228  0.91583353  1
  Ti  Ti15  1  0.66945426  0.83915497  0.41468637  1
  Al  Al16  1  0.16703591  0.33351796  0.74987560  1
  Al  Al17  1  0.33375435  0.16687717  0.25000000  1
  Al  Al18  1  0.16703591  0.83351795  0.75012440  1
  Al  Al19  1  0.33375435  0.66687718  0.25000000  1
  Al  Al20  1  0.66624566  0.33312283  0.75000000  1
  Al  Al21  1  0.83296408  0.16648204  0.24987560  1
  Al  Al22  1  0.66624566  0.83312282  0.75000000  1
  Al  Al23  1  0.83296408  0.66648205  0.25012440  1
  N  N24  1  -0.00000000  -0.00000000  0.00000000  1
  N  N25  1  -0.00000000  -0.00000000  0.50000000  1
  N  N26  1  -0.00000000  0.50000000  0.00000000  1
  N  N27  1  -0.00000000  0.50000000  0.50000000  1
  N  N28  1  0.50000000  -0.00000000  0.50000000  1
  N  N29  1  0.50000000  0.50000000  0.00000000  1
  O  O30  1  0.50000000  -0.00000000  0.00000000  1
  O  O31  1  0.50000000  0.50000000  0.50000000  1
