# generated using pymatgen
data_Ti8Al4N3O
_symmetry_space_group_name_H-M   'P 1'
_cell_length_a   6.16992042
_cell_length_b   6.17004973
_cell_length_c   14.04916274
_cell_angle_alpha   90.00000000
_cell_angle_beta   90.00000000
_cell_angle_gamma   120.00069328
_symmetry_Int_Tables_number   1
_chemical_formula_structural   Ti8Al4N3O
_chemical_formula_sum   'Ti16 Al8 N6 O2'
_cell_volume   463.17623469
_cell_formula_units_Z   2
loop_
 _symmetry_equiv_pos_site_id
 _symmetry_equiv_pos_as_xyz
  1  'x, y, z'
loop_
 _atom_site_type_symbol
 _atom_site_label
 _atom_site_symmetry_multiplicity
 _atom_site_fract_x
 _atom_site_fract_y
 _atom_site_fract_z
 _atom_site_occupancy
  Ti  Ti0  1  0.16672930  0.33336466  0.08315850  1
  Ti  Ti1  1  0.33011518  0.16009925  0.58436992  1
  Ti  Ti2  1  0.33011518  0.17001591  0.91563008  1
  Ti  Ti3  1  0.16015875  0.33007938  0.41557090  1
  Ti  Ti4  1  0.16015875  0.83007937  0.08442910  1
  Ti  Ti5  1  0.33011518  0.67001592  0.58436992  1
  Ti  Ti6  1  0.33011518  0.66009926  0.91563008  1
  Ti  Ti7  1  0.16672930  0.83336465  0.41684150  1
  Ti  Ti8  1  0.66988483  0.33990075  0.08436992  1
  Ti  Ti9  1  0.83327069  0.16663534  0.58315850  1
  Ti  Ti10  1  0.83984124  0.16992062  0.91557090  1
  Ti  Ti11  1  0.66988483  0.32998409  0.41563008  1
  Ti  Ti12  1  0.66988483  0.82998408  0.08436992  1
  Ti  Ti13  1  0.83984124  0.66992063  0.58442910  1
  Ti  Ti14  1  0.83327069  0.66663535  0.91684150  1
  Ti  Ti15  1  0.66988483  0.83990074  0.41563008  1
  Al  Al16  1  0.16693831  0.33346916  0.74991936  1
  Al  Al17  1  0.33366299  0.16683149  0.25000000  1
  Al  Al18  1  0.16693831  0.83346915  0.75008064  1
  Al  Al19  1  0.33366299  0.66683150  0.25000000  1
  Al  Al20  1  0.66633702  0.33316851  0.75000000  1
  Al  Al21  1  0.83306168  0.16653084  0.24991936  1
  Al  Al22  1  0.66633702  0.83316850  0.75000000  1
  Al  Al23  1  0.83306168  0.66653085  0.25008064  1
  N  N24  1  -0.00000000  0.00000000  0.00000000  1
  N  N25  1  -0.00000000  0.00000000  0.50000000  1
  N  N26  1  -0.00000000  0.50000000  0.00000000  1
  N  N27  1  -0.00000000  0.50000000  0.50000000  1
  N  N28  1  0.50000000  0.00000000  0.50000000  1
  N  N29  1  0.50000000  0.50000000  0.00000000  1
  O  O30  1  0.50000000  0.00000000  0.00000000  1
  O  O31  1  0.50000000  0.50000000  0.50000000  1
