# generated using pymatgen
data_Ti8Al4N3O
_symmetry_space_group_name_H-M   'P 1'
_cell_length_a   5.93736171
_cell_length_b   5.93703229
_cell_length_c   13.51616050
_cell_angle_alpha   90.00000000
_cell_angle_beta   90.00000000
_cell_angle_gamma   119.99816465
_symmetry_Int_Tables_number   1
_chemical_formula_structural   Ti8Al4N3O
_chemical_formula_sum   'Ti16 Al8 N6 O2'
_cell_volume   412.62441497
_cell_formula_units_Z   2
loop_
 _symmetry_equiv_pos_site_id
 _symmetry_equiv_pos_as_xyz
  1  'x, y, z'
loop_
 _atom_site_type_symbol
 _atom_site_label
 _atom_site_symmetry_multiplicity
 _atom_site_fract_x
 _atom_site_fract_y
 _atom_site_fract_z
 _atom_site_occupancy
  Ti  Ti0  1  0.16671041  0.33335523  0.08626803  1
  Ti  Ti1  1  0.33114450  0.16217509  0.58734336  1
  Ti  Ti2  1  0.33114450  0.16896940  0.91265664  1
  Ti  Ti3  1  0.16218100  0.33109051  0.41250404  1
  Ti  Ti4  1  0.16218100  0.83109050  0.08749596  1
  Ti  Ti5  1  0.33114450  0.66896941  0.58734336  1
  Ti  Ti6  1  0.33114450  0.66217510  0.91265664  1
  Ti  Ti7  1  0.16671041  0.83335522  0.41373197  1
  Ti  Ti8  1  0.66885551  0.33782491  0.08734336  1
  Ti  Ti9  1  0.83328958  0.16664477  0.58626803  1
  Ti  Ti10  1  0.83781899  0.16890949  0.91250404  1
  Ti  Ti11  1  0.66885551  0.33103060  0.41265664  1
  Ti  Ti12  1  0.66885551  0.83103059  0.08734336  1
  Ti  Ti13  1  0.83781899  0.66890950  0.58749596  1
  Ti  Ti14  1  0.83328958  0.66664478  0.91373197  1
  Ti  Ti15  1  0.66885551  0.83782490  0.41265664  1
  Al  Al16  1  0.16686019  0.33343011  0.74974591  1
  Al  Al17  1  0.33357721  0.16678859  0.25000000  1
  Al  Al18  1  0.16686019  0.83343010  0.75025409  1
  Al  Al19  1  0.33357721  0.66678860  0.25000000  1
  Al  Al20  1  0.66642280  0.33321141  0.75000000  1
  Al  Al21  1  0.83313980  0.16656989  0.24974591  1
  Al  Al22  1  0.66642280  0.83321140  0.75000000  1
  Al  Al23  1  0.83313980  0.66656990  0.25025409  1
  N  N24  1  0.00000000  0.00000000  0.00000000  1
  N  N25  1  0.00000000  0.00000000  0.50000000  1
  N  N26  1  0.00000000  0.50000000  0.00000000  1
  N  N27  1  0.00000000  0.50000000  0.50000000  1
  N  N28  1  0.50000000  0.00000000  0.50000000  1
  N  N29  1  0.50000000  0.50000000  0.00000000  1
  O  O30  1  0.50000000  0.00000000  0.00000000  1
  O  O31  1  0.50000000  0.50000000  0.50000000  1
