# generated using pymatgen
data_Ti8Al4N3O
_symmetry_space_group_name_H-M   'P 1'
_cell_length_a   6.13432440
_cell_length_b   6.13438597
_cell_length_c   13.96632819
_cell_angle_alpha   90.00000000
_cell_angle_beta   90.00000000
_cell_angle_gamma   120.00033211
_symmetry_Int_Tables_number   1
_chemical_formula_structural   Ti8Al4N3O
_chemical_formula_sum   'Ti16 Al8 N6 O2'
_cell_volume   455.14445750
_cell_formula_units_Z   2
loop_
 _symmetry_equiv_pos_site_id
 _symmetry_equiv_pos_as_xyz
  1  'x, y, z'
loop_
 _atom_site_type_symbol
 _atom_site_label
 _atom_site_symmetry_multiplicity
 _atom_site_fract_x
 _atom_site_fract_y
 _atom_site_fract_z
 _atom_site_occupancy
  Ti  Ti0  1  0.16680178  0.33340090  0.08368863  1
  Ti  Ti1  1  0.33036564  0.16050611  0.58485949  1
  Ti  Ti2  1  0.33036564  0.16985951  0.91514051  1
  Ti  Ti3  1  0.16058596  0.33029299  0.41505134  1
  Ti  Ti4  1  0.16058596  0.83029298  0.08494866  1
  Ti  Ti5  1  0.33036564  0.66985952  0.58485949  1
  Ti  Ti6  1  0.33036564  0.66050612  0.91514051  1
  Ti  Ti7  1  0.16680178  0.83340089  0.41631137  1
  Ti  Ti8  1  0.66963437  0.33949389  0.08485949  1
  Ti  Ti9  1  0.83319821  0.16659910  0.58368863  1
  Ti  Ti10  1  0.83941403  0.16970701  0.91505134  1
  Ti  Ti11  1  0.66963437  0.33014049  0.41514051  1
  Ti  Ti12  1  0.66963437  0.83014048  0.08485949  1
  Ti  Ti13  1  0.83941403  0.66970702  0.58494866  1
  Ti  Ti14  1  0.83319821  0.66659911  0.91631137  1
  Ti  Ti15  1  0.66963437  0.83949388  0.41514051  1
  Al  Al16  1  0.16706513  0.33353257  0.74991640  1
  Al  Al17  1  0.33378373  0.16689186  0.25000000  1
  Al  Al18  1  0.16706513  0.83353256  0.75008360  1
  Al  Al19  1  0.33378373  0.66689187  0.25000000  1
  Al  Al20  1  0.66621628  0.33310814  0.75000000  1
  Al  Al21  1  0.83293486  0.16646743  0.24991640  1
  Al  Al22  1  0.66621628  0.83310813  0.75000000  1
  Al  Al23  1  0.83293486  0.66646744  0.25008360  1
  N  N24  1  -0.00000000  -0.00000000  -0.00000000  1
  N  N25  1  -0.00000000  -0.00000000  0.50000000  1
  N  N26  1  -0.00000000  0.50000000  -0.00000000  1
  N  N27  1  -0.00000000  0.50000000  0.50000000  1
  N  N28  1  0.50000000  -0.00000000  0.50000000  1
  N  N29  1  0.50000000  0.50000000  -0.00000000  1
  O  O30  1  0.50000000  -0.00000000  -0.00000000  1
  O  O31  1  0.50000000  0.50000000  0.50000000  1
