# generated using pymatgen
data_Ti8Al4NO3
_symmetry_space_group_name_H-M   'P 1'
_cell_length_a   5.95368364
_cell_length_b   5.95329218
_cell_length_c   13.80391076
_cell_angle_alpha   90.00000000
_cell_angle_beta   90.00000000
_cell_angle_gamma   120.00217495
_symmetry_Int_Tables_number   1
_chemical_formula_structural   Ti8Al4NO3
_chemical_formula_sum   'Ti16 Al8 N2 O6'
_cell_volume   423.70755517
_cell_formula_units_Z   2
loop_
 _symmetry_equiv_pos_site_id
 _symmetry_equiv_pos_as_xyz
  1  'x, y, z'
loop_
 _atom_site_type_symbol
 _atom_site_label
 _atom_site_symmetry_multiplicity
 _atom_site_fract_x
 _atom_site_fract_y
 _atom_site_fract_z
 _atom_site_occupancy
  Ti  Ti0  1  0.16393975  0.33609880  0.08897343  1
  Ti  Ti1  1  0.33610929  0.17221855  0.58895280  1
  Ti  Ti2  1  0.33333728  0.16667451  0.90837932  1
  Ti  Ti3  1  0.17215903  0.33609880  0.41102657  1
  Ti  Ti4  1  0.16389071  0.82778144  0.08895280  1
  Ti  Ti5  1  0.33606025  0.66390121  0.58897343  1
  Ti  Ti6  1  0.32784097  0.66390121  0.91102657  1
  Ti  Ti7  1  0.16666272  0.83332548  0.40837932  1
  Ti  Ti8  1  0.67215904  0.33609880  0.08897343  1
  Ti  Ti9  1  0.83333727  0.16667451  0.59162068  1
  Ti  Ti10  1  0.83610928  0.17221855  0.91104720  1
  Ti  Ti11  1  0.66393976  0.33609880  0.41102657  1
  Ti  Ti12  1  0.66666273  0.83332548  0.09162068  1
  Ti  Ti13  1  0.82784096  0.66390121  0.58897343  1
  Ti  Ti14  1  0.83606024  0.66390121  0.91102657  1
  Ti  Ti15  1  0.66389072  0.82778144  0.41104720  1
  Al  Al16  1  0.16686150  0.33372304  0.75000000  1
  Al  Al17  1  0.33353127  0.16706253  0.24964761  1
  Al  Al18  1  0.16646873  0.83293746  0.74964761  1
  Al  Al19  1  0.33313850  0.66627697  0.25000000  1
  Al  Al20  1  0.66686151  0.33372304  0.75000000  1
  Al  Al21  1  0.83353126  0.16706253  0.25035239  1
  Al  Al22  1  0.66646874  0.83293746  0.75035239  1
  Al  Al23  1  0.83313849  0.66627697  0.25000000  1
  O  O24  1  0.00000000  0.00000000  0.00000000  1
  O  O25  1  0.00000000  0.00000000  0.50000000  1
  O  O26  1  0.00000000  0.50000000  0.50000000  1
  O  O27  1  0.50000000  0.00000000  0.00000000  1
  O  O28  1  0.50000000  0.00000000  0.50000000  1
  O  O29  1  0.50000000  0.50000000  0.00000000  1
  N  N30  1  0.00000000  0.50000000  0.00000000  1
  N  N31  1  0.50000000  0.50000000  0.50000000  1
