# generated using pymatgen
data_Ti8Al4NO3
_symmetry_space_group_name_H-M   'P 1'
_cell_length_a   5.99635756
_cell_length_b   5.99580546
_cell_length_c   13.89267994
_cell_angle_alpha   90.00000000
_cell_angle_beta   90.00000000
_cell_angle_gamma   120.00304584
_symmetry_Int_Tables_number   1
_chemical_formula_structural   Ti8Al4NO3
_chemical_formula_sum   'Ti16 Al8 N2 O6'
_cell_volume   432.55206253
_cell_formula_units_Z   2
loop_
 _symmetry_equiv_pos_site_id
 _symmetry_equiv_pos_as_xyz
  1  'x, y, z'
loop_
 _atom_site_type_symbol
 _atom_site_label
 _atom_site_symmetry_multiplicity
 _atom_site_fract_x
 _atom_site_fract_y
 _atom_site_fract_z
 _atom_site_occupancy
  Ti  Ti0  1  0.16379343  0.33628390  0.08846719  1
  Ti  Ti1  1  0.33627180  0.17254359  0.58844544  1
  Ti  Ti2  1  0.33334712  0.16669420  0.90880625  1
  Ti  Ti3  1  0.17249045  0.33628390  0.41153281  1
  Ti  Ti4  1  0.16372820  0.82745640  0.08844544  1
  Ti  Ti5  1  0.33620657  0.66371611  0.58846719  1
  Ti  Ti6  1  0.32750955  0.66371611  0.91153281  1
  Ti  Ti7  1  0.16665288  0.83330579  0.40880625  1
  Ti  Ti8  1  0.67249046  0.33628390  0.08846719  1
  Ti  Ti9  1  0.83334711  0.16669420  0.59119375  1
  Ti  Ti10  1  0.83627179  0.17254359  0.91155456  1
  Ti  Ti11  1  0.66379344  0.33628390  0.41153281  1
  Ti  Ti12  1  0.66665289  0.83330579  0.09119375  1
  Ti  Ti13  1  0.82750954  0.66371611  0.58846719  1
  Ti  Ti14  1  0.83620656  0.66371611  0.91153281  1
  Ti  Ti15  1  0.66372821  0.82745640  0.41155456  1
  Al  Al16  1  0.16685763  0.33371529  0.75000000  1
  Al  Al17  1  0.33352778  0.16705555  0.24967717  1
  Al  Al18  1  0.16647222  0.83294444  0.74967717  1
  Al  Al19  1  0.33314237  0.66628472  0.25000000  1
  Al  Al20  1  0.66685764  0.33371529  0.75000000  1
  Al  Al21  1  0.83352777  0.16705555  0.25032283  1
  Al  Al22  1  0.66647223  0.83294444  0.75032283  1
  Al  Al23  1  0.83314236  0.66628472  0.25000000  1
  O  O24  1  0.00000000  -0.00000000  0.00000000  1
  O  O25  1  0.00000000  -0.00000000  0.50000000  1
  O  O26  1  0.00000000  0.50000000  0.50000000  1
  O  O27  1  0.50000000  -0.00000000  0.00000000  1
  O  O28  1  0.50000000  -0.00000000  0.50000000  1
  O  O29  1  0.50000000  0.50000000  0.00000000  1
  N  N30  1  0.00000000  0.50000000  0.00000000  1
  N  N31  1  0.50000000  0.50000000  0.50000000  1
