# generated using pymatgen
data_Ti8Al4NO3
_symmetry_space_group_name_H-M   'P 1'
_cell_length_a   5.79097037
_cell_length_b   5.79035266
_cell_length_c   13.45541417
_cell_angle_alpha   90.00000000
_cell_angle_beta   90.00000000
_cell_angle_gamma   120.00352880
_symmetry_Int_Tables_number   1
_chemical_formula_structural   Ti8Al4NO3
_chemical_formula_sum   'Ti16 Al8 N2 O6'
_cell_volume   390.72267541
_cell_formula_units_Z   2
loop_
 _symmetry_equiv_pos_site_id
 _symmetry_equiv_pos_as_xyz
  1  'x, y, z'
loop_
 _atom_site_type_symbol
 _atom_site_label
 _atom_site_symmetry_multiplicity
 _atom_site_fract_x
 _atom_site_fract_y
 _atom_site_fract_z
 _atom_site_occupancy
  Ti  Ti0  1  0.16453533  0.33546840  0.09079995  1
  Ti  Ti1  1  0.33547855  0.17095707  0.59077546  1
  Ti  Ti2  1  0.33332103  0.16664201  0.90693384  1
  Ti  Ti3  1  0.17093306  0.33546840  0.40920005  1
  Ti  Ti4  1  0.16452145  0.82904292  0.09077546  1
  Ti  Ti5  1  0.33546467  0.66453161  0.59079995  1
  Ti  Ti6  1  0.32906694  0.66453161  0.90920005  1
  Ti  Ti7  1  0.16667897  0.83335798  0.40693384  1
  Ti  Ti8  1  0.67093307  0.33546840  0.09079995  1
  Ti  Ti9  1  0.83332102  0.16664201  0.59306616  1
  Ti  Ti10  1  0.83547854  0.17095707  0.90922454  1
  Ti  Ti11  1  0.66453534  0.33546840  0.40920005  1
  Ti  Ti12  1  0.66667898  0.83335798  0.09306616  1
  Ti  Ti13  1  0.82906693  0.66453161  0.59079995  1
  Ti  Ti14  1  0.83546466  0.66453161  0.90920005  1
  Ti  Ti15  1  0.66452146  0.82904292  0.40922454  1
  Al  Al16  1  0.16684573  0.33369148  0.75000000  1
  Al  Al17  1  0.33352436  0.16704870  0.24963187  1
  Al  Al18  1  0.16647564  0.83295129  0.74963187  1
  Al  Al19  1  0.33315427  0.66630853  0.25000000  1
  Al  Al20  1  0.66684574  0.33369148  0.75000000  1
  Al  Al21  1  0.83352435  0.16704870  0.25036813  1
  Al  Al22  1  0.66647565  0.83295129  0.75036813  1
  Al  Al23  1  0.83315426  0.66630853  0.25000000  1
  O  O24  1  0.00000000  0.00000000  -0.00000000  1
  O  O25  1  0.00000000  0.00000000  0.50000000  1
  O  O26  1  0.00000000  0.50000000  0.50000000  1
  O  O27  1  0.50000000  0.00000000  -0.00000000  1
  O  O28  1  0.50000000  0.00000000  0.50000000  1
  O  O29  1  0.50000000  0.50000000  -0.00000000  1
  N  N30  1  0.00000000  0.50000000  -0.00000000  1
  N  N31  1  0.50000000  0.50000000  0.50000000  1
