# generated using pymatgen
data_Ti8Al4NO3
_symmetry_space_group_name_H-M   'P 1'
_cell_length_a   5.83296367
_cell_length_b   5.83265657
_cell_length_c   13.54587085
_cell_angle_alpha   90.00000000
_cell_angle_beta   90.00000000
_cell_angle_gamma   120.00174158
_symmetry_Int_Tables_number   1
_chemical_formula_structural   Ti8Al4NO3
_chemical_formula_sum   'Ti16 Al8 N2 O6'
_cell_volume   399.10357438
_cell_formula_units_Z   2
loop_
 _symmetry_equiv_pos_site_id
 _symmetry_equiv_pos_as_xyz
  1  'x, y, z'
loop_
 _atom_site_type_symbol
 _atom_site_label
 _atom_site_symmetry_multiplicity
 _atom_site_fract_x
 _atom_site_fract_y
 _atom_site_fract_z
 _atom_site_occupancy
  Ti  Ti0  1  0.16439443  0.33561484  0.09034777  1
  Ti  Ti1  1  0.33563070  0.17126138  0.59032700  1
  Ti  Ti2  1  0.33332515  0.16665026  0.90728815  1
  Ti  Ti3  1  0.17122039  0.33561484  0.40965223  1
  Ti  Ti4  1  0.16436930  0.82873861  0.09032700  1
  Ti  Ti5  1  0.33560557  0.66438517  0.59034777  1
  Ti  Ti6  1  0.32877961  0.66438517  0.90965223  1
  Ti  Ti7  1  0.16667485  0.83334973  0.40728815  1
  Ti  Ti8  1  0.67122040  0.33561484  0.09034777  1
  Ti  Ti9  1  0.83332514  0.16665026  0.59271185  1
  Ti  Ti10  1  0.83563069  0.17126138  0.90967300  1
  Ti  Ti11  1  0.66439444  0.33561484  0.40965223  1
  Ti  Ti12  1  0.66667486  0.83334973  0.09271185  1
  Ti  Ti13  1  0.82877960  0.66438517  0.59034777  1
  Ti  Ti14  1  0.83560556  0.66438517  0.90965223  1
  Ti  Ti15  1  0.66436931  0.82873861  0.40967300  1
  Al  Al16  1  0.16685431  0.33370865  0.75000000  1
  Al  Al17  1  0.33352653  0.16705304  0.24962536  1
  Al  Al18  1  0.16647347  0.83294695  0.74962536  1
  Al  Al19  1  0.33314569  0.66629136  0.25000000  1
  Al  Al20  1  0.66685432  0.33370865  0.75000000  1
  Al  Al21  1  0.83352652  0.16705304  0.25037464  1
  Al  Al22  1  0.66647348  0.83294695  0.75037464  1
  Al  Al23  1  0.83314568  0.66629136  0.25000000  1
  O  O24  1  0.00000000  0.00000000  0.00000000  1
  O  O25  1  0.00000000  0.00000000  0.50000000  1
  O  O26  1  0.00000000  0.50000000  0.50000000  1
  O  O27  1  0.50000000  0.00000000  0.00000000  1
  O  O28  1  0.50000000  0.00000000  0.50000000  1
  O  O29  1  0.50000000  0.50000000  0.00000000  1
  N  N30  1  0.00000000  0.50000000  0.00000000  1
  N  N31  1  0.50000000  0.50000000  0.50000000  1
