# generated using pymatgen
data_Ti8Al4NO3
_symmetry_space_group_name_H-M   'P 1'
_cell_length_a   5.87512561
_cell_length_b   5.87471639
_cell_length_c   13.63682486
_cell_angle_alpha   90.00000000
_cell_angle_beta   90.00000000
_cell_angle_gamma   120.00230415
_symmetry_Int_Tables_number   1
_chemical_formula_structural   Ti8Al4NO3
_chemical_formula_sum   'Ti16 Al8 N2 O6'
_cell_volume   407.60346922
_cell_formula_units_Z   2
loop_
 _symmetry_equiv_pos_site_id
 _symmetry_equiv_pos_as_xyz
  1  'x, y, z'
loop_
 _atom_site_type_symbol
 _atom_site_label
 _atom_site_symmetry_multiplicity
 _atom_site_fract_x
 _atom_site_fract_y
 _atom_site_fract_z
 _atom_site_occupancy
  Ti  Ti0  1  0.16423782  0.33577349  0.08988603  1
  Ti  Ti1  1  0.33579319  0.17158636  0.58986540  1
  Ti  Ti2  1  0.33332790  0.16665576  0.90765342  1
  Ti  Ti3  1  0.17153566  0.33577349  0.41011397  1
  Ti  Ti4  1  0.16420681  0.82841363  0.08986540  1
  Ti  Ti5  1  0.33576218  0.66422652  0.58988603  1
  Ti  Ti6  1  0.32846434  0.66422652  0.91011397  1
  Ti  Ti7  1  0.16667210  0.83334423  0.40765342  1
  Ti  Ti8  1  0.67153567  0.33577349  0.08988603  1
  Ti  Ti9  1  0.83332789  0.16665576  0.59234658  1
  Ti  Ti10  1  0.83579318  0.17158636  0.91013460  1
  Ti  Ti11  1  0.66423783  0.33577349  0.41011397  1
  Ti  Ti12  1  0.66667211  0.83334423  0.09234658  1
  Ti  Ti13  1  0.82846433  0.66422652  0.58988603  1
  Ti  Ti14  1  0.83576217  0.66422652  0.91011397  1
  Ti  Ti15  1  0.66420682  0.82841363  0.41013460  1
  Al  Al16  1  0.16685993  0.33371988  0.75000000  1
  Al  Al17  1  0.33353255  0.16706509  0.24962126  1
  Al  Al18  1  0.16646745  0.83293490  0.74962126  1
  Al  Al19  1  0.33314007  0.66628013  0.25000000  1
  Al  Al20  1  0.66685994  0.33371988  0.75000000  1
  Al  Al21  1  0.83353254  0.16706509  0.25037874  1
  Al  Al22  1  0.66646746  0.83293490  0.75037874  1
  Al  Al23  1  0.83314006  0.66628013  0.25000000  1
  O  O24  1  -0.00000000  -0.00000000  -0.00000000  1
  O  O25  1  -0.00000000  -0.00000000  0.50000000  1
  O  O26  1  -0.00000000  0.50000000  0.50000000  1
  O  O27  1  0.50000000  -0.00000000  -0.00000000  1
  O  O28  1  0.50000000  -0.00000000  0.50000000  1
  O  O29  1  0.50000000  0.50000000  -0.00000000  1
  N  N30  1  -0.00000000  0.50000000  -0.00000000  1
  N  N31  1  0.50000000  0.50000000  0.50000000  1
