# generated using pymatgen
data_Ti8Al4NO3
_symmetry_space_group_name_H-M   'P 1'
_cell_length_a   6.06737596
_cell_length_b   6.06696999
_cell_length_c   14.05346013
_cell_angle_alpha   90.00000000
_cell_angle_beta   90.00000000
_cell_angle_gamma   120.00221345
_symmetry_Int_Tables_number   1
_chemical_formula_structural   Ti8Al4NO3
_chemical_formula_sum   'Ti16 Al8 N2 O6'
_cell_volume   447.99891649
_cell_formula_units_Z   2
loop_
 _symmetry_equiv_pos_site_id
 _symmetry_equiv_pos_as_xyz
  1  'x, y, z'
loop_
 _atom_site_type_symbol
 _atom_site_label
 _atom_site_symmetry_multiplicity
 _atom_site_fract_x
 _atom_site_fract_y
 _atom_site_fract_z
 _atom_site_occupancy
  Ti  Ti0  1  0.16344352  0.33664227  0.08755094  1
  Ti  Ti1  1  0.33662791  0.17325580  0.58751750  1
  Ti  Ti2  1  0.33334904  0.16669804  0.90954581  1
  Ti  Ti3  1  0.17319873  0.33664227  0.41244906  1
  Ti  Ti4  1  0.16337209  0.82674419  0.08751750  1
  Ti  Ti5  1  0.33655648  0.66335774  0.58755094  1
  Ti  Ti6  1  0.32680127  0.66335774  0.91244906  1
  Ti  Ti7  1  0.16665096  0.83330195  0.40954581  1
  Ti  Ti8  1  0.67319874  0.33664227  0.08755094  1
  Ti  Ti9  1  0.83334903  0.16669804  0.59045419  1
  Ti  Ti10  1  0.83662790  0.17325580  0.91248250  1
  Ti  Ti11  1  0.66344353  0.33664227  0.41244906  1
  Ti  Ti12  1  0.66665097  0.83330195  0.09045419  1
  Ti  Ti13  1  0.82680126  0.66335774  0.58755094  1
  Ti  Ti14  1  0.83655647  0.66335774  0.91244906  1
  Ti  Ti15  1  0.66337210  0.82674419  0.41248250  1
  Al  Al16  1  0.16683127  0.33366256  0.75000000  1
  Al  Al17  1  0.33349896  0.16699790  0.24973221  1
  Al  Al18  1  0.16650104  0.83300209  0.74973221  1
  Al  Al19  1  0.33316873  0.66633745  0.25000000  1
  Al  Al20  1  0.66683128  0.33366256  0.75000000  1
  Al  Al21  1  0.83349895  0.16699790  0.25026779  1
  Al  Al22  1  0.66650105  0.83300209  0.75026779  1
  Al  Al23  1  0.83316872  0.66633745  0.25000000  1
  O  O24  1  0.00000000  0.00000000  0.00000000  1
  O  O25  1  0.00000000  0.00000000  0.50000000  1
  O  O26  1  0.00000000  0.50000000  0.50000000  1
  O  O27  1  0.50000000  0.00000000  0.00000000  1
  O  O28  1  0.50000000  0.00000000  0.50000000  1
  O  O29  1  0.50000000  0.50000000  0.00000000  1
  N  N30  1  0.00000000  0.50000000  0.00000000  1
  N  N31  1  0.50000000  0.50000000  0.50000000  1
