# generated using pymatgen
data_Ti8Al4NO3
_symmetry_space_group_name_H-M   'P 1'
_cell_length_a   5.91732100
_cell_length_b   5.91691956
_cell_length_c   13.72728590
_cell_angle_alpha   90.00000000
_cell_angle_beta   90.00000000
_cell_angle_gamma   120.00224414
_symmetry_Int_Tables_number   1
_chemical_formula_structural   Ti8Al4NO3
_chemical_formula_sum   'Ti16 Al8 N2 O6'
_cell_volume   416.22319975
_cell_formula_units_Z   2
loop_
 _symmetry_equiv_pos_site_id
 _symmetry_equiv_pos_as_xyz
  1  'x, y, z'
loop_
 _atom_site_type_symbol
 _atom_site_label
 _atom_site_symmetry_multiplicity
 _atom_site_fract_x
 _atom_site_fract_y
 _atom_site_fract_z
 _atom_site_occupancy
  Ti  Ti0  1  0.16407606  0.33594352  0.08940440  1
  Ti  Ti1  1  0.33596076  0.17192150  0.58938465  1
  Ti  Ti2  1  0.33333177  0.16666350  0.90803343  1
  Ti  Ti3  1  0.17186744  0.33594352  0.41059560  1
  Ti  Ti4  1  0.16403924  0.82807849  0.08938465  1
  Ti  Ti5  1  0.33592394  0.66405649  0.58940440  1
  Ti  Ti6  1  0.32813256  0.66405649  0.91059560  1
  Ti  Ti7  1  0.16666823  0.83333649  0.40803343  1
  Ti  Ti8  1  0.67186745  0.33594352  0.08940440  1
  Ti  Ti9  1  0.83333176  0.16666350  0.59196657  1
  Ti  Ti10  1  0.83596075  0.17192150  0.91061535  1
  Ti  Ti11  1  0.66407607  0.33594352  0.41059560  1
  Ti  Ti12  1  0.66666824  0.83333649  0.09196657  1
  Ti  Ti13  1  0.82813255  0.66405649  0.58940440  1
  Ti  Ti14  1  0.83592393  0.66405649  0.91059560  1
  Ti  Ti15  1  0.66403925  0.82807849  0.41061535  1
  Al  Al16  1  0.16686287  0.33372574  0.75000000  1
  Al  Al17  1  0.33353403  0.16706806  0.24962869  1
  Al  Al18  1  0.16646597  0.83293193  0.74962869  1
  Al  Al19  1  0.33313713  0.66627427  0.25000000  1
  Al  Al20  1  0.66686288  0.33372574  0.75000000  1
  Al  Al21  1  0.83353402  0.16706806  0.25037131  1
  Al  Al22  1  0.66646598  0.83293193  0.75037131  1
  Al  Al23  1  0.83313712  0.66627427  0.25000000  1
  O  O24  1  -0.00000000  -0.00000000  0.00000000  1
  O  O25  1  -0.00000000  -0.00000000  0.50000000  1
  O  O26  1  -0.00000000  0.50000000  0.50000000  1
  O  O27  1  0.50000000  -0.00000000  0.00000000  1
  O  O28  1  0.50000000  -0.00000000  0.50000000  1
  O  O29  1  0.50000000  0.50000000  0.00000000  1
  N  N30  1  -0.00000000  0.50000000  0.00000000  1
  N  N31  1  0.50000000  0.50000000  0.50000000  1
