# generated using pymatgen
data_Ti8Al4NO3
_symmetry_space_group_name_H-M   'P 1'
_cell_length_a   6.03138715
_cell_length_b   6.03099357
_cell_length_c   13.97502833
_cell_angle_alpha   90.00000000
_cell_angle_beta   90.00000000
_cell_angle_gamma   120.00215862
_symmetry_Int_Tables_number   1
_chemical_formula_structural   Ti8Al4NO3
_chemical_formula_sum   'Ti16 Al8 N2 O6'
_cell_volume   440.23032313
_cell_formula_units_Z   2
loop_
 _symmetry_equiv_pos_site_id
 _symmetry_equiv_pos_as_xyz
  1  'x, y, z'
loop_
 _atom_site_type_symbol
 _atom_site_label
 _atom_site_symmetry_multiplicity
 _atom_site_fract_x
 _atom_site_fract_y
 _atom_site_fract_z
 _atom_site_occupancy
  Ti  Ti0  1  0.16361032  0.33642433  0.08801074  1
  Ti  Ti1  1  0.33644491  0.17288982  0.58798407  1
  Ti  Ti2  1  0.33334394  0.16668784  0.90912823  1
  Ti  Ti3  1  0.17281399  0.33642433  0.41198926  1
  Ti  Ti4  1  0.16355509  0.82711017  0.08798407  1
  Ti  Ti5  1  0.33638968  0.66357568  0.58801074  1
  Ti  Ti6  1  0.32718601  0.66357568  0.91198926  1
  Ti  Ti7  1  0.16665606  0.83331215  0.40912823  1
  Ti  Ti8  1  0.67281400  0.33642433  0.08801074  1
  Ti  Ti9  1  0.83334393  0.16668784  0.59087177  1
  Ti  Ti10  1  0.83644490  0.17288982  0.91201593  1
  Ti  Ti11  1  0.66361033  0.33642433  0.41198926  1
  Ti  Ti12  1  0.66665607  0.83331215  0.09087177  1
  Ti  Ti13  1  0.82718600  0.66357568  0.58801074  1
  Ti  Ti14  1  0.83638967  0.66357568  0.91198926  1
  Ti  Ti15  1  0.66355510  0.82711017  0.41201593  1
  Al  Al16  1  0.16688404  0.33376810  0.75000000  1
  Al  Al17  1  0.33355108  0.16710215  0.24964713  1
  Al  Al18  1  0.16644892  0.83289784  0.74964713  1
  Al  Al19  1  0.33311596  0.66623191  0.25000000  1
  Al  Al20  1  0.66688405  0.33376810  0.75000000  1
  Al  Al21  1  0.83355107  0.16710215  0.25035287  1
  Al  Al22  1  0.66644893  0.83289784  0.75035287  1
  Al  Al23  1  0.83311595  0.66623191  0.25000000  1
  O  O24  1  0.00000000  0.00000000  -0.00000000  1
  O  O25  1  0.00000000  0.00000000  0.50000000  1
  O  O26  1  0.00000000  0.50000000  0.50000000  1
  O  O27  1  0.50000000  0.00000000  -0.00000000  1
  O  O28  1  0.50000000  0.00000000  0.50000000  1
  O  O29  1  0.50000000  0.50000000  -0.00000000  1
  N  N30  1  0.00000000  0.50000000  -0.00000000  1
  N  N31  1  0.50000000  0.50000000  0.50000000  1
