# generated using pymatgen
data_Ta4CN3
_symmetry_space_group_name_H-M   'P 1'
_cell_length_a   6.21987803
_cell_length_b   6.22851198
_cell_length_c   9.02898863
_cell_angle_alpha   90.00000000
_cell_angle_beta   90.00000000
_cell_angle_gamma   90.00000000
_symmetry_Int_Tables_number   1
_chemical_formula_structural   Ta4CN3
_chemical_formula_sum   'Ta16 C4 N12'
_cell_volume   349.78829990
_cell_formula_units_Z   4
loop_
 _symmetry_equiv_pos_site_id
 _symmetry_equiv_pos_as_xyz
  1  'x, y, z'
loop_
 _atom_site_type_symbol
 _atom_site_label
 _atom_site_symmetry_multiplicity
 _atom_site_fract_x
 _atom_site_fract_y
 _atom_site_fract_z
 _atom_site_occupancy
  N  N0  1  0.75000000  0.74767474  0.49235751  1
  N  N1  1  0.75000000  0.25348249  0.48210351  1
  N  N2  1  0.25000000  0.74651751  0.48210351  1
  N  N3  1  0.25000000  0.25232526  0.49235751  1
  N  N4  1  0.50000000  0.50000000  0.26642225  1
  N  N5  1  0.75000000  0.24845351  0.98243901  1
  N  N6  1  0.00000000  0.50000000  0.26642225  1
  N  N7  1  0.25000000  0.75154649  0.98243901  1
  N  N8  1  0.50000000  0.50000000  0.76666592  1
  N  N9  1  0.50000000  0.00000000  0.75716564  1
  N  N10  1  0.00000000  0.50000000  0.76666592  1
  N  N11  1  0.00000000  0.00000000  0.75716564  1
  C  C12  1  0.50000000  0.00000000  0.25705670  1
  C  C13  1  0.75000000  0.75060696  0.99479628  1
  C  C14  1  0.00000000  0.00000000  0.25705670  1
  C  C15  1  0.25000000  0.24939304  0.99479628  1
  Ta  Ta16  1  0.75000000  0.24972232  0.73149273  1
  Ta  Ta17  1  0.75000000  0.74434870  0.75007574  1
  Ta  Ta18  1  0.25000000  0.25565130  0.75007574  1
  Ta  Ta19  1  0.25000000  0.75027768  0.73149273  1
  Ta  Ta20  1  0.50000000  0.00000000  0.50523206  1
  Ta  Ta21  1  0.50000000  0.50000000  0.51646823  1
  Ta  Ta22  1  0.75000000  0.24623445  0.23440291  1
  Ta  Ta23  1  0.75000000  0.75893884  0.24084031  1
  Ta  Ta24  1  0.00000000  0.00000000  0.50523206  1
  Ta  Ta25  1  0.00000000  0.50000000  0.51646823  1
  Ta  Ta26  1  0.25000000  0.24106116  0.24084031  1
  Ta  Ta27  1  0.25000000  0.75376555  0.23440291  1
  Ta  Ta28  1  0.50000000  0.00000000  0.01072100  1
  Ta  Ta29  1  0.50000000  0.50000000  0.01176020  1
  Ta  Ta30  1  0.00000000  0.00000000  0.01072100  1
  Ta  Ta31  1  0.00000000  0.50000000  0.01176020  1
