# generated using pymatgen
data_Ti4Al2NO
_symmetry_space_group_name_H-M   'P 1'
_cell_length_a   6.17244891
_cell_length_b   3.08059492
_cell_length_c   13.95899746
_cell_angle_alpha   90.00000000
_cell_angle_beta   90.00000000
_cell_angle_gamma   119.93967814
_symmetry_Int_Tables_number   1
_chemical_formula_structural   Ti4Al2NO
_chemical_formula_sum   'Ti8 Al4 N2 O2'
_cell_volume   230.00677097
_cell_formula_units_Z   2
loop_
 _symmetry_equiv_pos_site_id
 _symmetry_equiv_pos_as_xyz
  1  'x, y, z'
loop_
 _atom_site_type_symbol
 _atom_site_label
 _atom_site_symmetry_multiplicity
 _atom_site_fract_x
 _atom_site_fract_y
 _atom_site_fract_z
 _atom_site_occupancy
  Ti  Ti0  1  0.17459904  0.67459905  0.08679776  1
  Ti  Ti1  1  0.33881450  0.33881449  0.58468489  1
  Ti  Ti2  1  0.33881450  0.33881449  0.91531511  1
  Ti  Ti3  1  0.17459904  0.67459905  0.41320224  1
  Ti  Ti4  1  0.66118551  0.66118551  0.08468489  1
  Ti  Ti5  1  0.82540095  0.32540095  0.58679776  1
  Ti  Ti6  1  0.82540095  0.32540095  0.91320224  1
  Ti  Ti7  1  0.66118551  0.66118551  0.41531511  1
  Al  Al8  1  0.16648674  0.66648675  0.75000000  1
  Al  Al9  1  0.33479635  0.33479634  0.25000000  1
  Al  Al10  1  0.66520366  0.66520366  0.75000000  1
  Al  Al11  1  0.83351325  0.33351325  0.25000000  1
  O  O12  1  0.00000000  0.00000000  0.00000000  1
  O  O13  1  0.00000000  0.00000000  0.50000000  1
  N  N14  1  0.50000000  0.00000000  0.00000000  1
  N  N15  1  0.50000000  0.00000000  0.50000000  1
