# generated using pymatgen
data_Ti4Al2NO
_symmetry_space_group_name_H-M   'P 1'
_cell_length_a   6.46214352
_cell_length_b   3.21217616
_cell_length_c   14.41030890
_cell_angle_alpha   90.00000000
_cell_angle_beta   90.00000000
_cell_angle_gamma   119.58507289
_symmetry_Int_Tables_number   1
_chemical_formula_structural   Ti4Al2NO
_chemical_formula_sum   'Ti8 Al4 N2 O2'
_cell_volume   260.12407821
_cell_formula_units_Z   2
loop_
 _symmetry_equiv_pos_site_id
 _symmetry_equiv_pos_as_xyz
  1  'x, y, z'
loop_
 _atom_site_type_symbol
 _atom_site_label
 _atom_site_symmetry_multiplicity
 _atom_site_fract_x
 _atom_site_fract_y
 _atom_site_fract_z
 _atom_site_occupancy
  Ti  Ti0  1  0.17915767  0.67987571  0.08239390  1
  Ti  Ti1  1  0.34214986  0.34219481  0.58047004  1
  Ti  Ti2  1  0.34214986  0.34219481  0.91952996  1
  Ti  Ti3  1  0.17915767  0.67987571  0.41760610  1
  Ti  Ti4  1  0.65785015  0.65780519  0.08047004  1
  Ti  Ti5  1  0.82084232  0.32012429  0.58239390  1
  Ti  Ti6  1  0.82084232  0.32012429  0.91760610  1
  Ti  Ti7  1  0.65785015  0.65780519  0.41952996  1
  Al  Al8  1  0.16601915  0.66585237  0.75000000  1
  Al  Al9  1  0.33434108  0.33376529  0.25000000  1
  Al  Al10  1  0.66565893  0.66623471  0.75000000  1
  Al  Al11  1  0.83398084  0.33414763  0.25000000  1
  O  O12  1  0.00000000  0.00000000  0.00000000  1
  O  O13  1  0.00000000  0.00000000  0.50000000  1
  N  N14  1  0.50000000  0.00000000  0.00000000  1
  N  N15  1  0.50000000  0.00000000  0.50000000  1
