# generated using pymatgen
data_AlCrN2
_symmetry_space_group_name_H-M   'P 1'
_cell_length_a   8.15577633
_cell_length_b   8.26972404
_cell_length_c   3.98684706
_cell_angle_alpha   90.00000000
_cell_angle_beta   90.00000000
_cell_angle_gamma   90.00000000
_symmetry_Int_Tables_number   1
_chemical_formula_structural   AlCrN2
_chemical_formula_sum   'Al8 Cr8 N16'
_cell_volume   268.89696488
_cell_formula_units_Z   8
loop_
 _symmetry_equiv_pos_site_id
 _symmetry_equiv_pos_as_xyz
  1  'x, y, z'
loop_
 _atom_site_type_symbol
 _atom_site_label
 _atom_site_symmetry_multiplicity
 _atom_site_fract_x
 _atom_site_fract_y
 _atom_site_fract_z
 _atom_site_occupancy
  Al  Al0  1  0.00000000  0.99680731  0.00000000  1
  Al  Al1  1  0.24965124  0.99681445  0.50000000  1
  Al  Al2  1  0.00000000  0.74627320  0.50000000  1
  Al  Al3  1  0.24939314  0.50044067  0.50000000  1
  Al  Al4  1  0.24560521  0.75134607  0.00000000  1
  Al  Al5  1  0.75034876  0.99681445  0.50000000  1
  Al  Al6  1  0.75060686  0.50044067  0.50000000  1
  Al  Al7  1  0.75439479  0.75134607  0.00000000  1
  Cr  Cr8  1  0.00000000  0.25736643  0.50000000  1
  Cr  Cr9  1  0.25436974  0.25271788  0.00000000  1
  Cr  Cr10  1  0.00000000  0.46595289  0.00000000  1
  Cr  Cr11  1  0.50000000  0.02958247  0.00000000  1
  Cr  Cr12  1  0.50000000  0.24365831  0.50000000  1
  Cr  Cr13  1  0.74563026  0.25271788  0.00000000  1
  Cr  Cr14  1  0.50000000  0.52466957  0.00000000  1
  Cr  Cr15  1  0.50000000  0.73833382  0.50000000  1
  N  N16  1  0.24892239  0.25025787  0.50000000  1
  N  N17  1  0.24846826  0.99636116  0.00000000  1
  N  N18  1  0.00000000  0.23592157  0.00000000  1
  N  N19  1  0.00000000  0.99727908  0.50000000  1
  N  N20  1  0.24595240  0.74675599  0.50000000  1
  N  N21  1  0.24933215  0.50515622  0.00000000  1
  N  N22  1  0.00000000  0.75388053  0.00000000  1
  N  N23  1  0.00000000  0.50413210  0.50000000  1
  N  N24  1  0.75107761  0.25025787  0.50000000  1
  N  N25  1  0.75153174  0.99636116  0.00000000  1
  N  N26  1  0.50000000  0.26180353  0.00000000  1
  N  N27  1  0.50000000  0.99343558  0.50000000  1
  N  N28  1  0.75404760  0.74675599  0.50000000  1
  N  N29  1  0.75066785  0.50515622  0.00000000  1
  N  N30  1  0.50000000  0.75929099  0.00000000  1
  N  N31  1  0.50000000  0.49191200  0.50000000  1
