# generated using pymatgen
data_AlMoN2
_symmetry_space_group_name_H-M   'P 1'
_cell_length_a   8.66810533
_cell_length_b   8.38071035
_cell_length_c   4.18181815
_cell_angle_alpha   90.00000000
_cell_angle_beta   90.00000000
_cell_angle_gamma   91.83426720
_symmetry_Int_Tables_number   1
_chemical_formula_structural   AlMoN2
_chemical_formula_sum   'Al8 Mo8 N16'
_cell_volume   303.63201588
_cell_formula_units_Z   8
loop_
 _symmetry_equiv_pos_site_id
 _symmetry_equiv_pos_as_xyz
  1  'x, y, z'
loop_
 _atom_site_type_symbol
 _atom_site_label
 _atom_site_symmetry_multiplicity
 _atom_site_fract_x
 _atom_site_fract_y
 _atom_site_fract_z
 _atom_site_occupancy
  Mo  Mo0  1  0.01014990  0.02741619  0.00000000  1
  Mo  Mo1  1  0.02127611  0.24674534  0.50000000  1
  Mo  Mo2  1  0.23044824  0.25212748  0.00000000  1
  Mo  Mo3  1  0.24302712  0.48065237  0.50000000  1
  Mo  Mo4  1  0.51913383  0.01032733  0.00000000  1
  Mo  Mo5  1  0.77310800  0.02053294  0.50000000  1
  Mo  Mo6  1  0.73552377  0.24539725  0.00000000  1
  Mo  Mo7  1  0.75855855  0.47895166  0.50000000  1
  Al  Al8  1  0.26303518  0.98034623  0.50000000  1
  Al  Al9  1  0.99801359  0.51624601  0.00000000  1
  Al  Al10  1  0.00182293  0.75030915  0.50000000  1
  Al  Al11  1  0.25445449  0.75037238  0.00000000  1
  Al  Al12  1  0.47742381  0.25615441  0.50000000  1
  Al  Al13  1  0.49704055  0.50579730  0.00000000  1
  Al  Al14  1  0.50920234  0.74540172  0.50000000  1
  Al  Al15  1  0.75323928  0.74591498  0.00000000  1
  N  N16  1  0.26270166  0.21544125  0.50000000  1
  N  N17  1  0.25640969  0.98731662  0.00000000  1
  N  N18  1  0.98632907  0.28475678  0.00000000  1
  N  N19  1  0.02126743  0.98343707  0.50000000  1
  N  N20  1  0.25414051  0.74737731  0.50000000  1
  N  N21  1  0.24409621  0.51613866  0.00000000  1
  N  N22  1  0.00102524  0.74936844  0.00000000  1
  N  N23  1  0.99931621  0.51192619  0.50000000  1
  N  N24  1  0.68587619  0.24724803  0.50000000  1
  N  N25  1  0.75902820  0.97866605  0.00000000  1
  N  N26  1  0.48374111  0.26877311  0.00000000  1
  N  N27  1  0.49730779  0.99579642  0.50000000  1
  N  N28  1  0.75193832  0.75024467  0.50000000  1
  N  N29  1  0.75101158  0.50797071  0.00000000  1
  N  N30  1  0.50464264  0.74039764  0.00000000  1
  N  N31  1  0.49571046  0.50244835  0.50000000  1
