# generated using pymatgen
data_TiAlN2
_symmetry_space_group_name_H-M   'P 1'
_cell_length_a   8.34198912
_cell_length_b   8.37933033
_cell_length_c   4.17834135
_cell_angle_alpha   90.00000000
_cell_angle_beta   90.00000000
_cell_angle_gamma   90.00000000
_symmetry_Int_Tables_number   1
_chemical_formula_structural   TiAlN2
_chemical_formula_sum   'Ti8 Al8 N16'
_cell_volume   292.06724052
_cell_formula_units_Z   8
loop_
 _symmetry_equiv_pos_site_id
 _symmetry_equiv_pos_as_xyz
  1  'x, y, z'
loop_
 _atom_site_type_symbol
 _atom_site_label
 _atom_site_symmetry_multiplicity
 _atom_site_fract_x
 _atom_site_fract_y
 _atom_site_fract_z
 _atom_site_occupancy
  Al  Al0  1  0.00154972  0.00270428  0.00000000  1
  Al  Al1  1  0.24928142  0.00537894  0.50000000  1
  Al  Al2  1  0.24559863  0.25000000  0.00000000  1
  Al  Al3  1  0.00154972  0.49729572  0.00000000  1
  Al  Al4  1  0.24928142  0.49462106  0.50000000  1
  Al  Al5  1  0.75227897  0.99573695  0.50000000  1
  Al  Al6  1  0.49911088  0.75000000  0.50000000  1
  Al  Al7  1  0.75227897  0.50426305  0.50000000  1
  Ti  Ti8  1  0.99044455  0.25000000  0.50000000  1
  Ti  Ti9  1  0.00349091  0.75000000  0.50000000  1
  Ti  Ti10  1  0.25107367  0.75000000  0.00000000  1
  Ti  Ti11  1  0.50442387  0.00569979  0.00000000  1
  Ti  Ti12  1  0.50557906  0.25000000  0.50000000  1
  Ti  Ti13  1  0.74105878  0.25000000  0.00000000  1
  Ti  Ti14  1  0.50442387  0.49430021  0.00000000  1
  Ti  Ti15  1  0.74988531  0.75000000  0.00000000  1
  N  N16  1  0.24842901  0.25000000  0.50000000  1
  N  N17  1  0.24065494  0.00767722  0.00000000  1
  N  N18  1  0.00651141  0.25000000  0.00000000  1
  N  N19  1  0.99886749  0.99945058  0.50000000  1
  N  N20  1  0.25981287  0.75000000  0.50000000  1
  N  N21  1  0.24065494  0.49232278  0.00000000  1
  N  N22  1  0.00216861  0.75000000  0.00000000  1
  N  N23  1  0.99886749  0.50054942  0.50000000  1
  N  N24  1  0.74936208  0.25000000  0.50000000  1
  N  N25  1  0.76217579  0.00027702  0.00000000  1
  N  N26  1  0.48442582  0.25000000  0.00000000  1
  N  N27  1  0.50136560  0.98988617  0.50000000  1
  N  N28  1  0.74178928  0.75000000  0.50000000  1
  N  N29  1  0.76217579  0.49972298  0.00000000  1
  N  N30  1  0.50006351  0.75000000  0.00000000  1
  N  N31  1  0.50136560  0.51011383  0.50000000  1
