# generated using pymatgen
data_MnAlN2
_symmetry_space_group_name_H-M   'P 1'
_cell_length_a   8.10639865
_cell_length_b   8.05485397
_cell_length_c   4.06458052
_cell_angle_alpha   90.00000000
_cell_angle_beta   90.00000000
_cell_angle_gamma   89.86621782
_symmetry_Int_Tables_number   1
_chemical_formula_structural   MnAlN2
_chemical_formula_sum   'Mn8 Al8 N16'
_cell_volume   265.39954625
_cell_formula_units_Z   8
loop_
 _symmetry_equiv_pos_site_id
 _symmetry_equiv_pos_as_xyz
  1  'x, y, z'
loop_
 _atom_site_type_symbol
 _atom_site_label
 _atom_site_symmetry_multiplicity
 _atom_site_fract_x
 _atom_site_fract_y
 _atom_site_fract_z
 _atom_site_occupancy
  Mn  Mn0  1  0.95447323  0.99508838  0.00000000  1
  Mn  Mn1  1  0.01174597  0.51901028  0.00000000  1
  Mn  Mn2  1  0.23443027  0.72889485  0.00000000  1
  Mn  Mn3  1  0.52524272  0.24798456  0.50000000  1
  Mn  Mn4  1  0.74405099  0.02770522  0.50000000  1
  Mn  Mn5  1  0.72758963  0.25751738  0.00000000  1
  Mn  Mn6  1  0.51836730  0.46940200  0.00000000  1
  Mn  Mn7  1  0.76361433  0.75609070  0.00000000  1
  Al  Al8  1  0.00369963  0.25490427  0.50000000  1
  Al  Al9  1  0.24588942  0.99837465  0.50000000  1
  Al  Al10  1  0.24294047  0.24008601  0.00000000  1
  Al  Al11  1  0.00166222  0.75708535  0.50000000  1
  Al  Al12  1  0.25938194  0.49502240  0.50000000  1
  Al  Al13  1  0.48811164  0.98556198  0.00000000  1
  Al  Al14  1  0.50357869  0.74557674  0.50000000  1
  Al  Al15  1  0.75905218  0.51081888  0.50000000  1
  N  N16  1  0.25192970  0.24921304  0.50000000  1
  N  N17  1  0.24899930  0.99521790  0.00000000  1
  N  N18  1  0.99772301  0.25001408  0.00000000  1
  N  N19  1  0.99838793  0.00408078  0.50000000  1
  N  N20  1  0.25093820  0.74547911  0.50000000  1
  N  N21  1  0.25645943  0.48879076  0.00000000  1
  N  N22  1  0.00556286  0.76521273  0.00000000  1
  N  N23  1  0.00548327  0.50719125  0.50000000  1
  N  N24  1  0.76058846  0.26618318  0.50000000  1
  N  N25  1  0.72897774  0.00001656  0.00000000  1
  N  N26  1  0.49232326  0.23630116  0.00000000  1
  N  N27  1  0.49856922  0.99801514  0.50000000  1
  N  N28  1  0.75396571  0.75696357  0.50000000  1
  N  N29  1  0.75703518  0.50438221  0.00000000  1
  N  N30  1  0.49932231  0.74243655  0.00000000  1
  N  N31  1  0.50990380  0.50137836  0.50000000  1
