# generated using pymatgen
data_YAlN2
_symmetry_space_group_name_H-M   'P 1'
_cell_length_a   9.62379701
_cell_length_b   9.02603265
_cell_length_c   4.62118375
_cell_angle_alpha   90.00000000
_cell_angle_beta   90.00000000
_cell_angle_gamma   89.43596740
_symmetry_Int_Tables_number   1
_chemical_formula_structural   YAlN2
_chemical_formula_sum   'Y8 Al8 N16'
_cell_volume   401.39831754
_cell_formula_units_Z   8
loop_
 _symmetry_equiv_pos_site_id
 _symmetry_equiv_pos_as_xyz
  1  'x, y, z'
loop_
 _atom_site_type_symbol
 _atom_site_label
 _atom_site_symmetry_multiplicity
 _atom_site_fract_x
 _atom_site_fract_y
 _atom_site_fract_z
 _atom_site_occupancy
  Y  Y0  1  0.00147472  0.04657309  0.00000000  1
  Y  Y1  1  0.25424906  0.99537378  0.50000000  1
  Y  Y2  1  0.01448892  0.73294833  0.50000000  1
  Y  Y3  1  0.48635645  0.99124428  0.00000000  1
  Y  Y4  1  0.73824280  0.01118966  0.50000000  1
  Y  Y5  1  0.49747920  0.51034303  0.00000000  1
  Y  Y6  1  0.78069918  0.46071851  0.50000000  1
  Y  Y7  1  0.76032741  0.72790578  0.00000000  1
  Al  Al8  1  0.07391322  0.26639178  0.50000000  1
  Al  Al9  1  0.26772611  0.29664978  0.00000000  1
  Al  Al10  1  0.05112297  0.49442317  0.00000000  1
  Al  Al11  1  0.25944718  0.51036219  0.50000000  1
  Al  Al12  1  0.26094287  0.74040933  0.00000000  1
  Al  Al13  1  0.47388973  0.29382137  0.50000000  1
  Al  Al14  1  0.67611478  0.24784796  0.00000000  1
  Al  Al15  1  0.46215557  0.73816873  0.50000000  1
  N  N16  1  0.27367992  0.27466683  0.50000000  1
  N  N17  1  0.23436347  0.95703223  0.00000000  1
  N  N18  1  0.06911551  0.28016054  0.00000000  1
  N  N19  1  0.00749669  0.05912342  0.50000000  1
  N  N20  1  0.25695276  0.72781341  0.50000000  1
  N  N21  1  0.24987893  0.51410694  0.00000000  1
  N  N22  1  0.00222122  0.70517298  0.00000000  1
  N  N23  1  0.03358085  0.47355642  0.50000000  1
  N  N24  1  0.66370949  0.24876749  0.50000000  1
  N  N25  1  0.74084763  0.03866342  0.00000000  1
  N  N26  1  0.46569100  0.25417028  0.00000000  1
  N  N27  1  0.49329972  0.94978112  0.50000000  1
  N  N28  1  0.77370180  0.73708740  0.50000000  1
  N  N29  1  0.73594679  0.45854717  0.00000000  1
  N  N30  1  0.47411792  0.74548466  0.00000000  1
  N  N31  1  0.46676613  0.51149492  0.50000000  1
