# generated using pymatgen
data_TaTiN2
_symmetry_space_group_name_H-M   'P 1'
_cell_length_a   8.77212772
_cell_length_b   8.63558388
_cell_length_c   4.32511949
_cell_angle_alpha   90.00000000
_cell_angle_beta   90.00000000
_cell_angle_gamma   90.03903075
_symmetry_Int_Tables_number   1
_chemical_formula_structural   TaTiN2
_chemical_formula_sum   'Ta8 Ti8 N16'
_cell_volume   327.63829925
_cell_formula_units_Z   8
loop_
 _symmetry_equiv_pos_site_id
 _symmetry_equiv_pos_as_xyz
  1  'x, y, z'
loop_
 _atom_site_type_symbol
 _atom_site_label
 _atom_site_symmetry_multiplicity
 _atom_site_fract_x
 _atom_site_fract_y
 _atom_site_fract_z
 _atom_site_occupancy
  Ta  Ta0  1  0.98981267  0.99784658  0.00000000  1
  Ta  Ta1  1  0.99372770  0.25236747  0.50000000  1
  Ta  Ta2  1  0.25604540  0.25188449  0.00000000  1
  Ta  Ta3  1  0.99363647  0.74845655  0.50000000  1
  Ta  Ta4  1  0.26094844  0.74831939  0.00000000  1
  Ta  Ta5  1  0.48887926  0.00238157  0.00000000  1
  Ta  Ta6  1  0.75844359  0.00137653  0.50000000  1
  Ta  Ta7  1  0.75501851  0.74726901  0.00000000  1
  Ti  Ti8  1  0.26249137  0.99785348  0.50000000  1
  Ti  Ti9  1  0.99225076  0.49960440  0.00000000  1
  Ti  Ti10  1  0.25844923  0.50106533  0.50000000  1
  Ti  Ti11  1  0.50128096  0.25617141  0.50000000  1
  Ti  Ti12  1  0.74893616  0.25674803  0.00000000  1
  Ti  Ti13  1  0.50172539  0.49758868  0.00000000  1
  Ti  Ti14  1  0.49302577  0.74350139  0.50000000  1
  Ti  Ti15  1  0.74455665  0.49705587  0.50000000  1
  N  N16  1  0.25107721  0.25036580  0.50000000  1
  N  N17  1  0.23939586  -0.00013907  0.00000000  1
  N  N18  1  -0.00095097  0.25267172  0.00000000  1
  N  N19  1  0.01485901  0.00097854  0.50000000  1
  N  N20  1  0.24711647  0.74927216  0.50000000  1
  N  N21  1  0.25048157  0.49994195  0.00000000  1
  N  N22  1  0.00963650  0.74410432  0.00000000  1
  N  N23  1  -0.00063316  0.49997003  0.50000000  1
  N  N24  1  0.74542940  0.25315954  0.50000000  1
  N  N25  1  0.73797242  0.00600075  0.00000000  1
  N  N26  1  0.50360281  0.25344639  0.00000000  1
  N  N27  1  0.50617802  0.00021816  0.50000000  1
  N  N28  1  0.74025188  0.74515853  0.50000000  1
  N  N29  1  0.74892725  0.49847487  0.00000000  1
  N  N30  1  0.50720984  0.74713924  0.00000000  1
  N  N31  1  0.50021760  0.49974689  0.50000000  1
