# generated using pymatgen
data_TiCrN2
_symmetry_space_group_name_H-M   'P 1'
_cell_length_a   8.39848688
_cell_length_b   8.28788116
_cell_length_c   4.12760062
_cell_angle_alpha   90.00000000
_cell_angle_beta   90.00000000
_cell_angle_gamma   88.84555085
_symmetry_Int_Tables_number   1
_chemical_formula_structural   TiCrN2
_chemical_formula_sum   'Ti8 Cr8 N16'
_cell_volume   287.24605233
_cell_formula_units_Z   8
loop_
 _symmetry_equiv_pos_site_id
 _symmetry_equiv_pos_as_xyz
  1  'x, y, z'
loop_
 _atom_site_type_symbol
 _atom_site_label
 _atom_site_symmetry_multiplicity
 _atom_site_fract_x
 _atom_site_fract_y
 _atom_site_fract_z
 _atom_site_occupancy
  Cr  Cr0  1  0.00691414  0.01356788  0.00000000  1
  Cr  Cr1  1  0.01152346  0.22657205  0.50000000  1
  Cr  Cr2  1  0.21762962  0.01411235  0.50000000  1
  Cr  Cr3  1  0.98659143  0.52115842  0.00000000  1
  Cr  Cr4  1  0.99622522  0.73415142  0.50000000  1
  Cr  Cr5  1  0.72764857  0.99777332  0.50000000  1
  Cr  Cr6  1  0.48348376  0.50506957  0.00000000  1
  Cr  Cr7  1  0.78267747  0.73396784  0.00000000  1
  Ti  Ti8  1  0.24394171  0.24816390  0.00000000  1
  Ti  Ti9  1  0.24371767  0.50422067  0.50000000  1
  Ti  Ti10  1  0.24698559  0.75665255  0.00000000  1
  Ti  Ti11  1  0.50950098  0.99601659  0.00000000  1
  Ti  Ti12  1  0.50963850  0.24764496  0.50000000  1
  Ti  Ti13  1  0.76551601  0.24147676  0.00000000  1
  Ti  Ti14  1  0.50689497  0.75011965  0.50000000  1
  Ti  Ti15  1  0.75939688  0.50552462  0.50000000  1
  N  N16  1  0.25172998  0.25047542  0.50000000  1
  N  N17  1  0.25243219  0.00258350  0.00000000  1
  N  N18  1  0.00312187  0.26132725  0.00000000  1
  N  N19  1  0.99085712  0.98983384  0.50000000  1
  N  N20  1  0.24756123  0.75609943  0.50000000  1
  N  N21  1  0.23928029  0.50320502  0.00000000  1
  N  N22  1  0.00206482  0.76249229  0.00000000  1
  N  N23  1  0.00015464  0.48890977  0.50000000  1
  N  N24  1  0.75864862  0.24554817  0.50000000  1
  N  N25  1  0.76124053  0.99080781  0.00000000  1
  N  N26  1  0.50451925  0.25055059  0.00000000  1
  N  N27  1  0.48745781  0.99897613  0.50000000  1
  N  N28  1  0.75389626  0.75705791  0.50000000  1
  N  N29  1  0.74476899  0.49978036  0.00000000  1
  N  N30  1  0.50337945  0.74781321  0.00000000  1
  N  N31  1  0.50060096  0.49834680  0.50000000  1
