# generated using pymatgen
data_TiMnN2
_symmetry_space_group_name_H-M   'P 1'
_cell_length_a   8.21507855
_cell_length_b   8.40065907
_cell_length_c   4.11341308
_cell_angle_alpha   90.00000000
_cell_angle_beta   90.00000000
_cell_angle_gamma   90.00000000
_symmetry_Int_Tables_number   1
_chemical_formula_structural   TiMnN2
_chemical_formula_sum   'Ti8 Mn8 N16'
_cell_volume   283.87516841
_cell_formula_units_Z   8
loop_
 _symmetry_equiv_pos_site_id
 _symmetry_equiv_pos_as_xyz
  1  'x, y, z'
loop_
 _atom_site_type_symbol
 _atom_site_label
 _atom_site_symmetry_multiplicity
 _atom_site_fract_x
 _atom_site_fract_y
 _atom_site_fract_z
 _atom_site_occupancy
  Ti  Ti0  1  0.00000000  0.98796815  0.00000000  1
  Ti  Ti1  1  0.00000000  0.26172046  0.50000000  1
  Ti  Ti2  1  0.25320919  0.97847118  0.50000000  1
  Ti  Ti3  1  0.26305957  0.26626932  0.00000000  1
  Ti  Ti4  1  0.00000000  0.52527063  0.00000000  1
  Ti  Ti5  1  0.50000000  0.98406335  0.00000000  1
  Ti  Ti6  1  0.74679081  0.97847118  0.50000000  1
  Ti  Ti7  1  0.73694043  0.26626932  0.00000000  1
  N  N8  1  0.25492442  0.24551906  0.50000000  1
  N  N9  1  0.25036375  0.99875286  0.00000000  1
  N  N10  1  0.00000000  0.25786175  0.00000000  1
  N  N11  1  0.00000000  0.00458537  0.50000000  1
  N  N12  1  0.24535685  0.72800648  0.50000000  1
  N  N13  1  0.25705878  0.51236309  0.00000000  1
  N  N14  1  0.00000000  0.75398004  0.00000000  1
  N  N15  1  0.00000000  0.51083033  0.50000000  1
  N  N16  1  0.74507558  0.24551906  0.50000000  1
  N  N17  1  0.74963625  0.99875286  0.00000000  1
  N  N18  1  0.50000000  0.24024124  0.00000000  1
  N  N19  1  0.50000000  0.99486907  0.50000000  1
  N  N20  1  0.75464315  0.72800648  0.50000000  1
  N  N21  1  0.74294122  0.51236309  0.00000000  1
  N  N22  1  0.50000000  0.72346445  0.00000000  1
  N  N23  1  0.50000000  0.50949421  0.50000000  1
  Mn  Mn24  1  0.00000000  0.76323723  0.50000000  1
  Mn  Mn25  1  0.25248163  0.48933661  0.50000000  1
  Mn  Mn26  1  0.27336365  0.75600623  0.00000000  1
  Mn  Mn27  1  0.50000000  0.29145825  0.50000000  1
  Mn  Mn28  1  0.50000000  0.48682049  0.00000000  1
  Mn  Mn29  1  0.50000000  0.75468537  0.50000000  1
  Mn  Mn30  1  0.74751837  0.48933661  0.50000000  1
  Mn  Mn31  1  0.72663635  0.75600623  0.00000000  1
