# generated using pymatgen
data_TiVC2
_symmetry_space_group_name_H-M   'P 1'
_cell_length_a   8.49170218
_cell_length_b   8.48376427
_cell_length_c   4.23849394
_cell_angle_alpha   90.00000000
_cell_angle_beta   90.00000000
_cell_angle_gamma   90.00000000
_symmetry_Int_Tables_number   1
_chemical_formula_structural   TiVC2
_chemical_formula_sum   'Ti8 V8 C16'
_cell_volume   305.34788310
_cell_formula_units_Z   8
loop_
 _symmetry_equiv_pos_site_id
 _symmetry_equiv_pos_as_xyz
  1  'x, y, z'
loop_
 _atom_site_type_symbol
 _atom_site_label
 _atom_site_symmetry_multiplicity
 _atom_site_fract_x
 _atom_site_fract_y
 _atom_site_fract_z
 _atom_site_occupancy
  V  V0  1  0.00237168  0.00000000  0.00000000  1
  V  V1  1  0.00154770  0.24924930  0.50000000  1
  V  V2  1  0.24851170  0.24847962  0.00000000  1
  V  V3  1  0.00154770  0.75075070  0.50000000  1
  V  V4  1  0.24851170  0.75152038  0.00000000  1
  V  V5  1  0.49848138  0.25053465  0.50000000  1
  V  V6  1  0.49848138  0.74946535  0.50000000  1
  V  V7  1  0.75013222  0.50000000  0.50000000  1
  Ti  Ti8  1  0.24907178  0.00000000  0.50000000  1
  Ti  Ti9  1  0.00038346  0.50000000  0.00000000  1
  Ti  Ti10  1  0.24934692  0.50000000  0.50000000  1
  Ti  Ti11  1  0.49895718  0.00000000  0.00000000  1
  Ti  Ti12  1  0.75200045  0.00000000  0.50000000  1
  Ti  Ti13  1  0.75102132  0.25032080  0.00000000  1
  Ti  Ti14  1  0.49905139  0.50000000  0.00000000  1
  Ti  Ti15  1  0.75102132  0.74967920  0.00000000  1
  C  C16  1  0.24904018  0.24923204  0.50000000  1
  C  C17  1  0.24713873  0.00000000  0.00000000  1
  C  C18  1  0.00257194  0.24754600  0.00000000  1
  C  C19  1  0.00145731  0.00000000  0.50000000  1
  C  C20  1  0.24904018  0.75076796  0.50000000  1
  C  C21  1  0.24979945  0.50000000  0.00000000  1
  C  C22  1  0.00257194  0.75245400  0.00000000  1
  C  C23  1  0.99826446  0.50000000  0.50000000  1
  C  C24  1  0.75112531  0.25269503  0.50000000  1
  C  C25  1  0.75367862  0.00000000  0.00000000  1
  C  C26  1  0.49688716  0.25046669  0.00000000  1
  C  C27  1  0.49846276  0.00000000  0.50000000  1
  C  C28  1  0.75112531  0.74730497  0.50000000  1
  C  C29  1  0.75022418  0.50000000  0.00000000  1
  C  C30  1  0.49688716  0.74953331  0.00000000  1
  C  C31  1  0.50128606  0.50000000  0.50000000  1
