# generated using pymatgen
data_TiNiC2
_symmetry_space_group_name_H-M   'P 1'
_cell_length_a   8.49368312
_cell_length_b   8.26241433
_cell_length_c   4.27454619
_cell_angle_alpha   90.00000000
_cell_angle_beta   90.00000000
_cell_angle_gamma   90.55476911
_symmetry_Int_Tables_number   1
_chemical_formula_structural   TiNiC2
_chemical_formula_sum   'Ti8 Ni8 C16'
_cell_volume   299.96644782
_cell_formula_units_Z   8
loop_
 _symmetry_equiv_pos_site_id
 _symmetry_equiv_pos_as_xyz
  1  'x, y, z'
loop_
 _atom_site_type_symbol
 _atom_site_label
 _atom_site_symmetry_multiplicity
 _atom_site_fract_x
 _atom_site_fract_y
 _atom_site_fract_z
 _atom_site_occupancy
  Ti  Ti0  1  0.00374038  0.00531847  0.00000000  1
  Ti  Ti1  1  0.25973495  0.25796462  0.00000000  1
  Ti  Ti2  1  0.00768854  0.50420143  0.00000000  1
  Ti  Ti3  1  0.99762924  0.75790405  0.50000000  1
  Ti  Ti4  1  0.50017197  0.99367673  0.00000000  1
  Ti  Ti5  1  0.75088620  0.24452426  0.00000000  1
  Ti  Ti6  1  0.48725673  0.73896415  0.50000000  1
  Ti  Ti7  1  0.74325347  0.49849601  0.50000000  1
  Ni  Ni8  1  0.00044968  0.25400438  0.50000000  1
  Ni  Ni9  1  0.25078150  0.00589247  0.50000000  1
  Ni  Ni10  1  0.24483089  0.49905177  0.50000000  1
  Ni  Ni11  1  0.24763238  0.75772503  0.00000000  1
  Ni  Ni12  1  0.49831928  0.24107404  0.50000000  1
  Ni  Ni13  1  0.74373301  0.99767904  0.50000000  1
  Ni  Ni14  1  0.50512024  0.49864964  0.00000000  1
  Ni  Ni15  1  0.75497414  0.74562313  0.00000000  1
  C  C16  1  0.25740246  0.25334783  0.50000000  1
  C  C17  1  0.25165500  0.00185445  0.00000000  1
  C  C18  1  0.00650606  0.25337858  0.00000000  1
  C  C19  1  0.00099758  0.01075271  0.50000000  1
  C  C20  1  0.24505559  0.74836662  0.50000000  1
  C  C21  1  0.26766844  0.51728238  0.00000000  1
  C  C22  1  0.00223607  0.75653240  0.00000000  1
  C  C23  1  0.00193046  0.50275094  0.50000000  1
  C  C24  1  0.74949687  0.24183101  0.50000000  1
  C  C25  1  0.75122847  0.99190597  0.00000000  1
  C  C26  1  0.50313588  0.25156764  0.00000000  1
  C  C27  1  0.49872321  0.99505653  0.50000000  1
  C  C28  1  0.74391655  0.75510700  0.50000000  1
  C  C29  1  0.74737523  0.49900404  0.00000000  1
  C  C30  1  0.49411561  0.73931782  0.00000000  1
  C  C31  1  0.48235391  0.48119488  0.50000000  1
