# generated using pymatgen
data_HfTiN2
_symmetry_space_group_name_H-M   'P 1'
_cell_length_a   8.84513990
_cell_length_b   8.85201612
_cell_length_c   4.40676160
_cell_angle_alpha   90.00000000
_cell_angle_beta   90.00000000
_cell_angle_gamma   90.00520153
_symmetry_Int_Tables_number   1
_chemical_formula_structural   HfTiN2
_chemical_formula_sum   'Hf8 Ti8 N16'
_cell_volume   345.03762591
_cell_formula_units_Z   8
loop_
 _symmetry_equiv_pos_site_id
 _symmetry_equiv_pos_as_xyz
  1  'x, y, z'
loop_
 _atom_site_type_symbol
 _atom_site_label
 _atom_site_symmetry_multiplicity
 _atom_site_fract_x
 _atom_site_fract_y
 _atom_site_fract_z
 _atom_site_occupancy
  Hf  Hf0  1  0.99177011  0.00714220  0.00000000  1
  Hf  Hf1  1  0.24726082  0.00954965  0.50000000  1
  Hf  Hf2  1  0.99180628  0.74288012  0.50000000  1
  Hf  Hf3  1  0.24728874  0.74041941  0.00000000  1
  Hf  Hf4  1  0.50775188  0.00163818  0.00000000  1
  Hf  Hf5  1  0.50505878  0.25199013  0.50000000  1
  Hf  Hf6  1  0.50509440  0.49803699  0.00000000  1
  Hf  Hf7  1  0.50771394  0.74835141  0.50000000  1
  Ti  Ti8  1  0.99664188  0.25819980  0.50000000  1
  Ti  Ti9  1  0.23943004  0.26096621  0.00000000  1
  Ti  Ti10  1  0.99649460  0.49183290  0.00000000  1
  Ti  Ti11  1  0.23933478  0.48901497  0.50000000  1
  Ti  Ti12  1  0.75117660  0.00577478  0.50000000  1
  Ti  Ti13  1  0.76049809  0.25679658  0.00000000  1
  Ti  Ti14  1  0.76057174  0.49319918  0.50000000  1
  Ti  Ti15  1  0.75120534  0.74421615  0.00000000  1
  N  N16  1  0.24671655  0.25364504  0.50000000  1
  N  N17  1  0.24826675  0.00128662  0.00000000  1
  N  N18  1  0.99918360  0.25419857  0.00000000  1
  N  N19  1  0.99721914  0.00252067  0.50000000  1
  N  N20  1  0.24826459  0.74868425  0.50000000  1
  N  N21  1  0.24671243  0.49631638  0.00000000  1
  N  N22  1  0.99720591  0.74749846  0.00000000  1
  N  N23  1  0.99919123  0.49583828  0.50000000  1
  N  N24  1  0.75473390  0.25156034  0.50000000  1
  N  N25  1  0.75060546  0.00219563  0.00000000  1
  N  N26  1  0.50220668  0.25082528  0.00000000  1
  N  N27  1  0.50153609  0.00110733  0.50000000  1
  N  N28  1  0.75063862  0.74778513  0.50000000  1
  N  N29  1  0.75471437  0.49845814  0.00000000  1
  N  N30  1  0.50153599  0.74889762  0.00000000  1
  N  N31  1  0.50217068  0.49917364  0.50000000  1
