# generated using pymatgen
data_ZrTiC2
_symmetry_space_group_name_H-M   'P 1'
_cell_length_a   9.08009961
_cell_length_b   9.07332381
_cell_length_c   4.55305679
_cell_angle_alpha   90.00000000
_cell_angle_beta   90.00000000
_cell_angle_gamma   90.05422225
_symmetry_Int_Tables_number   1
_chemical_formula_structural   ZrTiC2
_chemical_formula_sum   'Zr8 Ti8 C16'
_cell_volume   375.11108309
_cell_formula_units_Z   8
loop_
 _symmetry_equiv_pos_site_id
 _symmetry_equiv_pos_as_xyz
  1  'x, y, z'
loop_
 _atom_site_type_symbol
 _atom_site_label
 _atom_site_symmetry_multiplicity
 _atom_site_fract_x
 _atom_site_fract_y
 _atom_site_fract_z
 _atom_site_occupancy
  Ti  Ti0  1  0.00143471  0.00700382  0.00000000  1
  Ti  Ti1  1  0.00126115  0.24738816  0.50000000  1
  Ti  Ti2  1  0.24473160  0.00735950  0.50000000  1
  Ti  Ti3  1  0.24531029  0.24681911  0.00000000  1
  Ti  Ti4  1  0.99945029  0.49327388  0.00000000  1
  Ti  Ti5  1  0.49852740  0.24778150  0.50000000  1
  Ti  Ti6  1  0.75478805  0.00534684  0.50000000  1
  Ti  Ti7  1  0.75473622  0.49386857  0.50000000  1
  C  C8  1  0.24710551  0.24247583  0.50000000  1
  C  C9  1  0.24199923  0.00896190  0.00000000  1
  C  C10  1  0.00602547  0.24860392  0.00000000  1
  C  C11  1  0.00045571  0.00897001  0.50000000  1
  C  C12  1  0.24833150  0.75648299  0.50000000  1
  C  C13  1  0.24192019  0.49104809  0.00000000  1
  C  C14  1  0.00006134  0.75121272  0.00000000  1
  C  C15  1  0.99367403  0.49119902  0.50000000  1
  C  C16  1  0.75310408  0.24902490  0.50000000  1
  C  C17  1  0.75801326  0.00244560  0.00000000  1
  C  C18  1  0.49448638  0.24929714  0.00000000  1
  C  C19  1  0.49988044  0.00931225  0.50000000  1
  C  C20  1  0.75160035  0.75204846  0.50000000  1
  C  C21  1  0.75804838  0.49738447  0.00000000  1
  C  C22  1  0.50009636  0.75097092  0.00000000  1
  C  C23  1  0.50510676  0.49131154  0.50000000  1
  Zr  Zr24  1  0.99899884  0.75206898  0.50000000  1
  Zr  Zr25  1  0.24604565  0.49260336  0.50000000  1
  Zr  Zr26  1  0.24681628  0.75336125  0.00000000  1
  Zr  Zr27  1  0.49817802  0.00524495  0.00000000  1
  Zr  Zr28  1  0.75419225  0.24928860  0.00000000  1
  Zr  Zr29  1  0.50130407  0.49512344  0.00000000  1
  Zr  Zr30  1  0.50103446  0.75195778  0.50000000  1
  Zr  Zr31  1  0.75328174  0.75076052  0.00000000  1
