# generated using pymatgen
data_TiNbN2
_symmetry_space_group_name_H-M   'P 1'
_cell_length_a   8.64659955
_cell_length_b   8.64659955
_cell_length_c   4.36888261
_cell_angle_alpha   90.00000000
_cell_angle_beta   90.00000000
_cell_angle_gamma   89.72713809
_symmetry_Int_Tables_number   1
_chemical_formula_structural   TiNbN2
_chemical_formula_sum   'Ti8 Nb8 N16'
_cell_volume   326.63005398
_cell_formula_units_Z   8
loop_
 _symmetry_equiv_pos_site_id
 _symmetry_equiv_pos_as_xyz
  1  'x, y, z'
loop_
 _atom_site_type_symbol
 _atom_site_label
 _atom_site_symmetry_multiplicity
 _atom_site_fract_x
 _atom_site_fract_y
 _atom_site_fract_z
 _atom_site_occupancy
  Ti  Ti0  1  0.00243878  0.00243878  0.00000000  1
  Ti  Ti1  1  0.00069197  0.24816444  0.50000000  1
  Ti  Ti2  1  0.24816444  0.00069197  0.50000000  1
  Ti  Ti3  1  0.25183556  0.49930803  0.50000000  1
  Ti  Ti4  1  0.25000000  0.75000000  0.00000000  1
  Ti  Ti5  1  0.49930803  0.25183556  0.50000000  1
  Ti  Ti6  1  0.75000000  0.25000000  0.00000000  1
  Ti  Ti7  1  0.49756122  0.49756122  0.00000000  1
  Nb  Nb8  1  0.25000000  0.25000000  0.00000000  1
  Nb  Nb9  1  0.99892931  0.50107069  0.00000000  1
  Nb  Nb10  1  0.00306471  0.74954155  0.50000000  1
  Nb  Nb11  1  0.50107069  0.99892931  0.00000000  1
  Nb  Nb12  1  0.74954155  0.00306471  0.50000000  1
  Nb  Nb13  1  0.49693529  0.75045845  0.50000000  1
  Nb  Nb14  1  0.75045845  0.49693529  0.50000000  1
  Nb  Nb15  1  0.75000000  0.75000000  0.00000000  1
  N  N16  1  0.25000000  0.25000000  0.50000000  1
  N  N17  1  0.24661222  0.99550328  0.00000000  1
  N  N18  1  0.99550328  0.24661222  0.00000000  1
  N  N19  1  0.00409949  0.00409949  0.50000000  1
  N  N20  1  0.25000000  0.75000000  0.50000000  1
  N  N21  1  0.25338778  0.50449672  0.00000000  1
  N  N22  1  0.00551637  0.75724665  0.00000000  1
  N  N23  1  0.00699523  0.49300477  0.50000000  1
  N  N24  1  0.75000000  0.25000000  0.50000000  1
  N  N25  1  0.75724665  0.00551637  0.00000000  1
  N  N26  1  0.50449672  0.25338778  0.00000000  1
  N  N27  1  0.49300477  0.00699523  0.50000000  1
  N  N28  1  0.75000000  0.75000000  0.50000000  1
  N  N29  1  0.74275335  0.49448363  0.00000000  1
  N  N30  1  0.49448363  0.74275335  0.00000000  1
  N  N31  1  0.49590051  0.49590051  0.50000000  1
