# generated using pymatgen
data_Ti8Al4NO3
_symmetry_space_group_name_H-M   'P 1'
_cell_length_a   6.43069662
_cell_length_b   5.76958884
_cell_length_c   14.19607036
_cell_angle_alpha   90.00000000
_cell_angle_beta   90.00000000
_cell_angle_gamma   119.14885188
_symmetry_Int_Tables_number   1
_chemical_formula_structural   Ti8Al4NO3
_chemical_formula_sum   'Ti16 Al8 N2 O6'
_cell_volume   460.00542734
_cell_formula_units_Z   2
loop_
 _symmetry_equiv_pos_site_id
 _symmetry_equiv_pos_as_xyz
  1  'x, y, z'
loop_
 _atom_site_type_symbol
 _atom_site_label
 _atom_site_symmetry_multiplicity
 _atom_site_fract_x
 _atom_site_fract_y
 _atom_site_fract_z
 _atom_site_occupancy
  Ti  Ti0  1  0.16830868  0.33873267  0.08598068  1
  Ti  Ti1  1  0.33003280  0.16727666  0.58596882  1
  Ti  Ti2  1  0.32461615  0.16266866  0.90988071  1
  Ti  Ti3  1  0.18481927  0.34112299  0.41258906  1
  Ti  Ti4  1  0.16996720  0.83272333  0.08596882  1
  Ti  Ti5  1  0.33169132  0.66126734  0.58598068  1
  Ti  Ti6  1  0.31518073  0.65887702  0.91258906  1
  Ti  Ti7  1  0.17538385  0.83733133  0.40988071  1
  Ti  Ti8  1  0.68481928  0.34112299  0.08741094  1
  Ti  Ti9  1  0.82461614  0.16266866  0.59011929  1
  Ti  Ti10  1  0.83003279  0.16727666  0.91403118  1
  Ti  Ti11  1  0.66830869  0.33873267  0.41401932  1
  Ti  Ti12  1  0.67538386  0.83733133  0.09011929  1
  Ti  Ti13  1  0.81518072  0.65887702  0.58741094  1
  Ti  Ti14  1  0.83169131  0.66126734  0.91401932  1
  Ti  Ti15  1  0.66996721  0.83272333  0.41403118  1
  Al  Al16  1  0.14822919  0.31633349  0.74978106  1
  Al  Al17  1  0.35359596  0.18461863  0.24934988  1
  Al  Al18  1  0.14640404  0.81538136  0.74934988  1
  Al  Al19  1  0.35177081  0.68366652  0.24978106  1
  Al  Al20  1  0.64822920  0.31633349  0.75021894  1
  Al  Al21  1  0.85359595  0.18461863  0.25065012  1
  Al  Al22  1  0.64640405  0.81538136  0.75065012  1
  Al  Al23  1  0.85177080  0.68366652  0.25021894  1
  O  O24  1  -0.00000000  0.00000000  0.00000000  1
  O  O25  1  -0.00000000  0.00000000  0.50000000  1
  O  O26  1  -0.00000000  0.50000000  0.50000000  1
  O  O27  1  0.50000000  0.00000000  0.00000000  1
  O  O28  1  0.50000000  0.00000000  0.50000000  1
  O  O29  1  0.50000000  0.50000000  0.00000000  1
  N  N30  1  -0.00000000  0.50000000  0.00000000  1
  N  N31  1  0.50000000  0.50000000  0.50000000  1
