# generated using pymatgen
data_Ti8Al4NO3
_symmetry_space_group_name_H-M   'P 1'
_cell_length_a   6.50123127
_cell_length_b   5.81357995
_cell_length_c   14.23258435
_cell_angle_alpha   90.00000000
_cell_angle_beta   90.00000000
_cell_angle_gamma   119.10435402
_symmetry_Int_Tables_number   1
_chemical_formula_structural   Ti8Al4NO3
_chemical_formula_sum   'Ti16 Al8 N2 O6'
_cell_volume   470.00545158
_cell_formula_units_Z   2
loop_
 _symmetry_equiv_pos_site_id
 _symmetry_equiv_pos_as_xyz
  1  'x, y, z'
loop_
 _atom_site_type_symbol
 _atom_site_label
 _atom_site_symmetry_multiplicity
 _atom_site_fract_x
 _atom_site_fract_y
 _atom_site_fract_z
 _atom_site_occupancy
  Ti  Ti0  1  0.16403859  0.33662531  0.08538392  1
  Ti  Ti1  1  0.33422912  0.16907770  0.58542720  1
  Ti  Ti2  1  0.32901699  0.16488500  0.91061747  1
  Ti  Ti3  1  0.18281212  0.33999319  0.41373084  1
  Ti  Ti4  1  0.16577088  0.83092229  0.08542720  1
  Ti  Ti5  1  0.33596141  0.66337470  0.58538392  1
  Ti  Ti6  1  0.31718788  0.66000682  0.91373084  1
  Ti  Ti7  1  0.17098301  0.83511499  0.41061747  1
  Ti  Ti8  1  0.68281213  0.33999319  0.08626916  1
  Ti  Ti9  1  0.82901698  0.16488500  0.58938253  1
  Ti  Ti10  1  0.83422911  0.16907770  0.91457280  1
  Ti  Ti11  1  0.66403860  0.33662531  0.41461608  1
  Ti  Ti12  1  0.67098302  0.83511499  0.08938253  1
  Ti  Ti13  1  0.81718787  0.66000682  0.58626916  1
  Ti  Ti14  1  0.83596140  0.66337470  0.91461608  1
  Ti  Ti15  1  0.66577089  0.83092229  0.41457280  1
  Al  Al16  1  0.15229932  0.31867663  0.74988040  1
  Al  Al17  1  0.34987425  0.18242542  0.24943276  1
  Al  Al18  1  0.15012575  0.81757457  0.74943276  1
  Al  Al19  1  0.34770068  0.68132338  0.24988040  1
  Al  Al20  1  0.65229933  0.31867663  0.75011960  1
  Al  Al21  1  0.84987424  0.18242542  0.25056724  1
  Al  Al22  1  0.65012576  0.81757457  0.75056724  1
  Al  Al23  1  0.84770067  0.68132338  0.25011960  1
  O  O24  1  0.00000000  0.00000000  -0.00000000  1
  O  O25  1  0.00000000  0.00000000  0.50000000  1
  O  O26  1  0.00000000  0.50000000  0.50000000  1
  O  O27  1  0.50000000  0.00000000  -0.00000000  1
  O  O28  1  0.50000000  0.00000000  0.50000000  1
  O  O29  1  0.50000000  0.50000000  -0.00000000  1
  N  N30  1  0.00000000  0.50000000  -0.00000000  1
  N  N31  1  0.50000000  0.50000000  0.50000000  1
