# generated using pymatgen
data_TiAlN2
_symmetry_space_group_name_H-M   'P 1'
_cell_length_a   8.40566914
_cell_length_b   8.32477248
_cell_length_c   4.16037012
_cell_angle_alpha   90.00000000
_cell_angle_beta   90.00000000
_cell_angle_gamma   89.94084834
_symmetry_Int_Tables_number   1
_chemical_formula_structural   TiAlN2
_chemical_formula_sum   'Ti8 Al8 N16'
_cell_volume   291.12292181
_cell_formula_units_Z   8
loop_
 _symmetry_equiv_pos_site_id
 _symmetry_equiv_pos_as_xyz
  1  'x, y, z'
loop_
 _atom_site_type_symbol
 _atom_site_label
 _atom_site_symmetry_multiplicity
 _atom_site_fract_x
 _atom_site_fract_y
 _atom_site_fract_z
 _atom_site_occupancy
  Al  Al0  1  0.00154872  0.00061024  0.00000000  1
  Al  Al1  1  0.00012891  0.25051354  0.50000000  1
  Al  Al2  1  0.24013204  0.99693302  0.50000000  1
  Al  Al3  1  0.00027493  0.50061154  0.00000000  1
  Al  Al4  1  0.00200907  0.74811808  0.50000000  1
  Al  Al5  1  0.24190444  0.75236384  0.00000000  1
  Al  Al6  1  0.75799445  0.99982840  0.50000000  1
  Al  Al7  1  0.75787981  0.50018464  0.50000000  1
  Ti  Ti8  1  0.25745510  0.25511782  0.00000000  1
  Ti  Ti9  1  0.26057478  0.49485394  0.50000000  1
  Ti  Ti10  1  0.49982403  0.00098149  0.00000000  1
  Ti  Ti11  1  0.49622942  0.25324463  0.50000000  1
  Ti  Ti12  1  0.74154345  0.25002312  0.00000000  1
  Ti  Ti13  1  0.49561996  0.49878231  0.00000000  1
  Ti  Ti14  1  0.50062968  0.74738064  0.50000000  1
  Ti  Ti15  1  0.74123245  0.75034903  0.00000000  1
  N  N16  1  0.23916354  0.23700948  0.50000000  1
  N  N17  1  0.24222804  0.99325798  0.00000000  1
  N  N18  1  0.00052806  0.25043649  0.00000000  1
  N  N19  1  0.99678299  0.99985252  0.50000000  1
  N  N20  1  0.24147566  0.75816346  0.50000000  1
  N  N21  1  0.24015355  0.51035090  0.00000000  1
  N  N22  1  0.00365680  0.75031848  0.00000000  1
  N  N23  1  0.99384047  0.49928980  0.50000000  1
  N  N24  1  0.75895842  0.24767684  0.50000000  1
  N  N25  1  0.75784242  0.99927581  0.00000000  1
  N  N26  1  0.50014886  0.24883517  0.00000000  1
  N  N27  1  0.50609950  0.00025085  0.50000000  1
  N  N28  1  0.75912438  0.75232478  0.50000000  1
  N  N29  1  0.75850000  0.50114872  0.00000000  1
  N  N30  1  0.48776158  0.75049107  0.00000000  1
  N  N31  1  0.51875451  0.50142136  0.50000000  1
