# generated using pymatgen
data_Ti4Al2NO
_symmetry_space_group_name_H-M   'P 1'
_cell_length_a   6.36383553
_cell_length_b   3.17006038
_cell_length_c   14.27573178
_cell_angle_alpha   90.00000000
_cell_angle_beta   90.00000000
_cell_angle_gamma   119.76182573
_symmetry_Int_Tables_number   1
_chemical_formula_structural   Ti4Al2NO
_chemical_formula_sum   'Ti8 Al4 N2 O2'
_cell_volume   250.00736596
_cell_formula_units_Z   2
loop_
 _symmetry_equiv_pos_site_id
 _symmetry_equiv_pos_as_xyz
  1  'x, y, z'
loop_
 _atom_site_type_symbol
 _atom_site_label
 _atom_site_symmetry_multiplicity
 _atom_site_fract_x
 _atom_site_fract_y
 _atom_site_fract_z
 _atom_site_occupancy
  Ti  Ti0  1  0.17728592  0.67775776  0.08418686  1
  Ti  Ti1  1  0.34069091  0.34084171  0.58212170  1
  Ti  Ti2  1  0.34069091  0.34084171  0.91787830  1
  Ti  Ti3  1  0.17728592  0.67775776  0.41581314  1
  Ti  Ti4  1  0.65930910  0.65915829  0.08212170  1
  Ti  Ti5  1  0.82271407  0.32224224  0.58418686  1
  Ti  Ti6  1  0.82271407  0.32224224  0.91581314  1
  Ti  Ti7  1  0.65930910  0.65915829  0.41787830  1
  Al  Al8  1  0.16605868  0.66611112  0.75000000  1
  Al  Al9  1  0.33498190  0.33420489  0.25000000  1
  Al  Al10  1  0.66501811  0.66579511  0.75000000  1
  Al  Al11  1  0.83394131  0.33388888  0.25000000  1
  O  O12  1  0.00000000  -0.00000000  -0.00000000  1
  O  O13  1  0.00000000  -0.00000000  0.50000000  1
  N  N14  1  0.50000000  -0.00000000  -0.00000000  1
  N  N15  1  0.50000000  -0.00000000  0.50000000  1
