# generated using pymatgen
data_Ti4Al2NO
_symmetry_space_group_name_H-M   'P 1'
_cell_length_a   6.24244390
_cell_length_b   3.11194895
_cell_length_c   14.24683733
_cell_angle_alpha   90.00000000
_cell_angle_beta   90.00000000
_cell_angle_gamma   119.82059791
_symmetry_Int_Tables_number   1
_chemical_formula_structural   Ti4Al2NO
_chemical_formula_sum   'Ti8 Al4 N2 O2'
_cell_volume   240.11455201
_cell_formula_units_Z   2
loop_
 _symmetry_equiv_pos_site_id
 _symmetry_equiv_pos_as_xyz
  1  'x, y, z'
loop_
 _atom_site_type_symbol
 _atom_site_label
 _atom_site_symmetry_multiplicity
 _atom_site_fract_x
 _atom_site_fract_y
 _atom_site_fract_z
 _atom_site_occupancy
  Ti  Ti0  1  0.17600027  0.67641379  0.08566195  1
  Ti  Ti1  1  0.33976179  0.33994155  0.58341071  1
  Ti  Ti2  1  0.33976179  0.33994155  0.91658929  1
  Ti  Ti3  1  0.17600027  0.67641379  0.41433805  1
  Ti  Ti4  1  0.66023822  0.66005845  0.08341071  1
  Ti  Ti5  1  0.82399972  0.32358621  0.58566195  1
  Ti  Ti6  1  0.82399972  0.32358621  0.91433805  1
  Ti  Ti7  1  0.66023822  0.66005845  0.41658929  1
  Al  Al8  1  0.16643895  0.66644655  0.75000000  1
  Al  Al9  1  0.33490884  0.33429971  0.25000000  1
  Al  Al10  1  0.66509117  0.66570029  0.75000000  1
  Al  Al11  1  0.83356104  0.33355345  0.25000000  1
  O  O12  1  0.00000000  0.00000000  -0.00000000  1
  O  O13  1  0.00000000  0.00000000  0.50000000  1
  N  N14  1  0.50000000  0.00000000  -0.00000000  1
  N  N15  1  0.50000000  0.00000000  0.50000000  1
