# generated using pymatgen
data_AlV2N
_symmetry_space_group_name_H-M   'P 1'
_cell_length_a   3.08931174
_cell_length_b   3.08931173
_cell_length_c   13.91529555
_cell_angle_alpha   90.00000000
_cell_angle_beta   90.00000000
_cell_angle_gamma   120.00820431
_symmetry_Int_Tables_number   1
_chemical_formula_structural   AlV2N
_chemical_formula_sum   'Al2 V4 N2'
_cell_volume   115.00338542
_cell_formula_units_Z   2
loop_
 _symmetry_equiv_pos_site_id
 _symmetry_equiv_pos_as_xyz
  1  'x, y, z'
loop_
 _atom_site_type_symbol
 _atom_site_label
 _atom_site_symmetry_multiplicity
 _atom_site_fract_x
 _atom_site_fract_y
 _atom_site_fract_z
 _atom_site_occupancy
  Al  Al0  1  0.33230818  0.66769182  0.25000463  1
  Al  Al1  1  0.66655839  0.33344161  0.75000510  1
  V  V2  1  0.33302426  0.66697574  0.92442160  1
  V  V3  1  0.66624141  0.33375859  0.42442732  1
  V  V4  1  0.66624142  0.33375858  0.07556573  1
  V  V5  1  0.33302434  0.66697566  0.57557573  1
  N  N6  1  0.99963095  0.00036905  0.99999678  1
  N  N7  1  0.99963104  0.00036896  0.50000312  1
