# generated using pymatgen
data_AlV2O
_symmetry_space_group_name_H-M   'P 1'
_cell_length_a   3.00368790
_cell_length_b   3.00368790
_cell_length_c   14.71940521
_cell_angle_alpha   89.93732092
_cell_angle_beta   90.06267907
_cell_angle_gamma   120.00446279
_symmetry_Int_Tables_number   1
_chemical_formula_structural   AlV2O
_chemical_formula_sum   'Al2 V4 O2'
_cell_volume   115.00338530
_cell_formula_units_Z   2
loop_
 _symmetry_equiv_pos_site_id
 _symmetry_equiv_pos_as_xyz
  1  'x, y, z'
loop_
 _atom_site_type_symbol
 _atom_site_label
 _atom_site_symmetry_multiplicity
 _atom_site_fract_x
 _atom_site_fract_y
 _atom_site_fract_z
 _atom_site_occupancy
  Al  Al0  1  0.33266148  0.66733852  0.25006568  1
  Al  Al1  1  0.66647549  0.33352451  0.75005910  1
  V  V2  1  0.33308885  0.66691115  0.90778325  1
  V  V3  1  0.66604894  0.33395106  0.40778619  1
  V  V4  1  0.66607360  0.33392640  0.09221990  1
  V  V5  1  0.33311904  0.66688096  0.59221980  1
  O  O6  1  0.99960035  0.00039965  -0.00005848  1
  O  O7  1  0.99959226  0.00040774  0.49992456  1
