# generated using pymatgen
data_Ti4Al2CO
_symmetry_space_group_name_H-M   'P 1'
_cell_length_a   6.08408273
_cell_length_b   3.05051269
_cell_length_c   13.70064223
_cell_angle_alpha   90.00000000
_cell_angle_beta   90.00000000
_cell_angle_gamma   120.09215675
_symmetry_Int_Tables_number   1
_chemical_formula_structural   Ti4Al2CO
_chemical_formula_sum   'Ti8 Al4 C2 O2'
_cell_volume   220.00647120
_cell_formula_units_Z   2
loop_
 _symmetry_equiv_pos_site_id
 _symmetry_equiv_pos_as_xyz
  1  'x, y, z'
loop_
 _atom_site_type_symbol
 _atom_site_label
 _atom_site_symmetry_multiplicity
 _atom_site_fract_x
 _atom_site_fract_y
 _atom_site_fract_z
 _atom_site_occupancy
  Ti  Ti0  1  0.17156219  0.67156219  0.08699688  1
  Ti  Ti1  1  0.33554656  0.33554656  0.58627992  1
  Ti  Ti2  1  0.33554656  0.33554656  0.91372008  1
  Ti  Ti3  1  0.17156219  0.67156219  0.41300312  1
  Ti  Ti4  1  0.66445344  0.66445344  0.08627992  1
  Ti  Ti5  1  0.82843781  0.32843781  0.58699688  1
  Ti  Ti6  1  0.82843781  0.32843781  0.91300312  1
  Ti  Ti7  1  0.66445344  0.66445344  0.41372008  1
  Al  Al8  1  0.16536040  0.66536040  0.75000000  1
  Al  Al9  1  0.33253921  0.33253921  0.25000000  1
  Al  Al10  1  0.66746079  0.66746079  0.75000000  1
  Al  Al11  1  0.83463960  0.33463960  0.25000000  1
  O  O12  1  0.00000000  0.00000000  -0.00000000  1
  O  O13  1  0.00000000  0.00000000  0.50000000  1
  C  C14  1  0.50000000  0.00000000  -0.00000000  1
  C  C15  1  0.50000000  0.00000000  0.50000000  1
