# generated using pymatgen
data_TiSiN2
_symmetry_space_group_name_H-M   'P 1'
_cell_length_a   8.67364766
_cell_length_b   8.41259252
_cell_length_c   4.07874292
_cell_angle_alpha   90.00000000
_cell_angle_beta   90.00000000
_cell_angle_gamma   91.32408156
_symmetry_Int_Tables_number   1
_chemical_formula_structural   TiSiN2
_chemical_formula_sum   'Ti8 Si8 N16'
_cell_volume   297.53768839
_cell_formula_units_Z   8
loop_
 _symmetry_equiv_pos_site_id
 _symmetry_equiv_pos_as_xyz
  1  'x, y, z'
loop_
 _atom_site_type_symbol
 _atom_site_label
 _atom_site_symmetry_multiplicity
 _atom_site_fract_x
 _atom_site_fract_y
 _atom_site_fract_z
 _atom_site_occupancy
  Ti  Ti0  1  0.04042312  0.02442050  0.00000000  1
  Ti  Ti1  1  0.03987437  0.24990227  0.50000000  1
  Ti  Ti2  1  0.24840161  0.98755339  0.50000000  1
  Ti  Ti3  1  0.99785797  0.75370844  0.50000000  1
  Ti  Ti4  1  0.21949944  0.49976270  0.50000000  1
  Ti  Ti5  1  0.22770252  0.72730641  0.00000000  1
  Ti  Ti6  1  0.76802444  0.99292721  0.50000000  1
  Ti  Ti7  1  0.77088250  0.77154763  0.00000000  1
  Si  Si8  1  0.24605288  0.28714511  0.00000000  1
  Si  Si9  1  0.01845977  0.44713253  0.00000000  1
  Si  Si10  1  0.49317958  0.00657055  0.00000000  1
  Si  Si11  1  0.49500701  0.27870202  0.50000000  1
  Si  Si12  1  0.72283091  0.24332914  0.00000000  1
  Si  Si13  1  0.51482023  0.53617220  0.00000000  1
  Si  Si14  1  0.50030050  0.76257109  0.50000000  1
  Si  Si15  1  0.74450075  0.49979243  0.50000000  1
  N  N16  1  0.29551467  0.24982308  0.50000000  1
  N  N17  1  0.28439219  0.97807219  0.00000000  1
  N  N18  1  0.92524860  0.25228016  0.00000000  1
  N  N19  1  0.00433276  0.00804308  0.50000000  1
  N  N20  1  0.28068704  0.73986796  0.50000000  1
  N  N21  1  0.32103431  0.48937615  0.00000000  1
  N  N22  1  0.99654104  0.76889971  0.00000000  1
  N  N23  1  0.95007695  0.49605694  0.50000000  1
  N  N24  1  0.70223519  0.26310179  0.50000000  1
  N  N25  1  0.70663836  0.01561547  0.00000000  1
  N  N26  1  0.50483885  0.22858218  0.00000000  1
  N  N27  1  0.50459095  0.97539377  0.50000000  1
  N  N28  1  0.73044812  0.73246760  0.50000000  1
  N  N29  1  0.71127973  0.48382181  0.00000000  1
  N  N30  1  0.51020108  0.74702571  0.00000000  1
  N  N31  1  0.52412257  0.50302876  0.50000000  1
