# generated using pymatgen
data_AlVN2
_symmetry_space_group_name_H-M   'P 1'
_cell_length_a   8.30346202
_cell_length_b   8.21455573
_cell_length_c   4.06504110
_cell_angle_alpha   90.00000000
_cell_angle_beta   90.00000000
_cell_angle_gamma   90.62542699
_symmetry_Int_Tables_number   1
_chemical_formula_structural   AlVN2
_chemical_formula_sum   'Al8 V8 N16'
_cell_volume   277.25689198
_cell_formula_units_Z   8
loop_
 _symmetry_equiv_pos_site_id
 _symmetry_equiv_pos_as_xyz
  1  'x, y, z'
loop_
 _atom_site_type_symbol
 _atom_site_label
 _atom_site_symmetry_multiplicity
 _atom_site_fract_x
 _atom_site_fract_y
 _atom_site_fract_z
 _atom_site_occupancy
  Al  Al0  1  0.99948717  0.99936485  0.00000000  1
  Al  Al1  1  0.24302155  0.24878784  0.00000000  1
  Al  Al2  1  0.25600395  0.75859941  0.00000000  1
  Al  Al3  1  0.75858865  0.99812535  0.50000000  1
  Al  Al4  1  0.75532590  0.24972929  0.00000000  1
  Al  Al5  1  0.50381480  0.74707873  0.50000000  1
  Al  Al6  1  0.73973456  0.49734613  0.50000000  1
  Al  Al7  1  0.74474349  0.74810518  0.00000000  1
  V  V8  1  0.00652875  0.26749732  0.50000000  1
  V  V9  1  0.27238260  0.00903804  0.50000000  1
  V  V10  1  0.01055519  0.50552118  0.00000000  1
  V  V11  1  0.00948531  0.73457301  0.50000000  1
  V  V12  1  0.23404977  0.50620301  0.50000000  1
  V  V13  1  0.49354416  0.01175720  0.00000000  1
  V  V14  1  0.48873389  0.23143462  0.50000000  1
  V  V15  1  0.48397609  0.48419623  0.00000000  1
  N  N16  1  0.24875201  0.25619305  0.50000000  1
  N  N17  1  0.24228529  0.00592186  0.00000000  1
  N  N18  1  0.00290602  0.24494758  0.00000000  1
  N  N19  1  0.99813929  0.00067638  0.50000000  1
  N  N20  1  0.25963393  0.75460672  0.50000000  1
  N  N21  1  0.24685872  0.49991228  0.00000000  1
  N  N22  1  0.00683161  0.75754426  0.00000000  1
  N  N23  1  0.98387928  0.50072569  0.50000000  1
  N  N24  1  0.74809809  0.25012566  0.50000000  1
  N  N25  1  0.75624109  0.99980758  0.00000000  1
  N  N26  1  0.49490588  0.24858168  0.00000000  1
  N  N27  1  0.51763059  0.98731024  0.50000000  1
  N  N28  1  0.74759174  0.74573985  0.50000000  1
  N  N29  1  0.74884304  0.49751515  0.00000000  1
  N  N30  1  0.49740130  0.74978435  0.00000000  1
  N  N31  1  0.50002626  0.50325029  0.50000000  1
