# generated using pymatgen
data_AlSiN2
_symmetry_space_group_name_H-M   'P 1'
_cell_length_a   11.42167979
_cell_length_b   10.02091856
_cell_length_c   3.01210801
_cell_angle_alpha   90.00000000
_cell_angle_beta   90.00000000
_cell_angle_gamma   95.20694043
_symmetry_Int_Tables_number   1
_chemical_formula_structural   AlSiN2
_chemical_formula_sum   'Al8 Si8 N16'
_cell_volume   343.33034651
_cell_formula_units_Z   8
loop_
 _symmetry_equiv_pos_site_id
 _symmetry_equiv_pos_as_xyz
  1  'x, y, z'
loop_
 _atom_site_type_symbol
 _atom_site_label
 _atom_site_symmetry_multiplicity
 _atom_site_fract_x
 _atom_site_fract_y
 _atom_site_fract_z
 _atom_site_occupancy
  Si  Si0  1  0.03643025  0.01360182  0.00000000  1
  Si  Si1  1  0.92570998  0.24343659  0.50000000  1
  Si  Si2  1  0.95517621  0.52995051  0.00000000  1
  Si  Si3  1  0.50716895  0.98528032  0.00000000  1
  Si  Si4  1  0.45254937  0.22301286  0.50000000  1
  Si  Si5  1  0.74987599  0.99389759  0.50000000  1
  Si  Si6  1  0.63692375  0.48804471  0.50000000  1
  Si  Si7  1  0.84315300  0.76403999  0.00000000  1
  Al  Al8  1  0.28543669  0.99589105  0.50000000  1
  Al  Al9  1  0.21069266  0.23213488  0.00000000  1
  Al  Al10  1  0.08912632  0.75919383  0.50000000  1
  Al  Al11  1  0.20185196  0.49475633  0.50000000  1
  Al  Al12  1  0.32906148  0.74138084  0.00000000  1
  Al  Al13  1  0.69905102  0.24622212  0.00000000  1
  Al  Al14  1  0.43691404  0.51144750  0.00000000  1
  Al  Al15  1  0.59233780  0.72555260  0.50000000  1
  N  N16  1  0.18673862  0.31530324  0.50000000  1
  N  N17  1  0.19219556  0.04535763  0.00000000  1
  N  N18  1  0.94214649  0.33645677  0.00000000  1
  N  N19  1  0.99318841  0.09071839  0.50000000  1
  N  N20  1  0.25280499  0.80679466  0.50000000  1
  N  N21  1  0.28289009  0.55625962  0.00000000  1
  N  N22  1  0.00953808  0.83279930  0.00000000  1
  N  N23  1  0.05137930  0.56757548  0.50000000  1
  N  N24  1  0.77006041  0.17534586  0.50000000  1
  N  N25  1  0.80483962  0.94349435  0.00000000  1
  N  N26  1  0.53718474  0.17266733  0.00000000  1
  N  N27  1  0.59384159  0.94544912  0.50000000  1
  N  N28  1  0.76971828  0.72812743  0.50000000  1
  N  N29  1  0.69338618  0.42590074  0.00000000  1
  N  N30  1  0.49204982  0.70708953  0.00000000  1
  N  N31  1  0.47657841  0.40281702  0.50000000  1
