# generated using pymatgen
data_HfAlN2
_symmetry_space_group_name_H-M   'P 1'
_cell_length_a   8.71860330
_cell_length_b   8.68090031
_cell_length_c   4.38823513
_cell_angle_alpha   90.00000000
_cell_angle_beta   90.00000000
_cell_angle_gamma   89.88975026
_symmetry_Int_Tables_number   1
_chemical_formula_structural   HfAlN2
_chemical_formula_sum   'Hf8 Al8 N16'
_cell_volume   332.12439195
_cell_formula_units_Z   8
loop_
 _symmetry_equiv_pos_site_id
 _symmetry_equiv_pos_as_xyz
  1  'x, y, z'
loop_
 _atom_site_type_symbol
 _atom_site_label
 _atom_site_symmetry_multiplicity
 _atom_site_fract_x
 _atom_site_fract_y
 _atom_site_fract_z
 _atom_site_occupancy
  Hf  Hf0  1  0.99626089  0.99933307  0.00000000  1
  Hf  Hf1  1  0.99899474  0.24935020  0.50000000  1
  Hf  Hf2  1  0.25009258  0.24991795  0.00000000  1
  Hf  Hf3  1  0.00011694  0.50198276  0.00000000  1
  Hf  Hf4  1  0.99483273  0.75337919  0.50000000  1
  Hf  Hf5  1  0.75656361  0.00041727  0.50000000  1
  Hf  Hf6  1  0.75276239  0.24716021  0.00000000  1
  Hf  Hf7  1  0.49877343  0.49587012  0.00000000  1
  Al  Al8  1  0.26010556  0.97966655  0.50000000  1
  Al  Al9  1  0.25714365  0.50947280  0.50000000  1
  Al  Al10  1  0.26062054  0.75254420  0.00000000  1
  Al  Al11  1  0.49607353  0.99387512  0.00000000  1
  Al  Al12  1  0.49653694  0.23411108  0.50000000  1
  Al  Al13  1  0.49784276  0.75505188  0.50000000  1
  Al  Al14  1  0.72946784  0.50514644  0.50000000  1
  Al  Al15  1  0.72841976  0.75076155  0.00000000  1
  N  N16  1  0.26782716  0.26549209  0.50000000  1
  N  N17  1  0.26432707  0.98634874  0.00000000  1
  N  N18  1  0.00494526  0.25199551  0.00000000  1
  N  N19  1  0.03397051  0.99858276  0.50000000  1
  N  N20  1  0.26562710  0.74618149  0.50000000  1
  N  N21  1  0.25329648  0.51626768  0.00000000  1
  N  N22  1  0.01057498  0.75165489  0.00000000  1
  N  N23  1  0.01590431  0.50255849  0.50000000  1
  N  N24  1  0.72586133  0.27200422  0.50000000  1
  N  N25  1  0.72890454  0.97919659  0.00000000  1
  N  N26  1  0.49994166  0.23473301  0.00000000  1
  N  N27  1  0.48680093  0.99790726  0.50000000  1
  N  N28  1  0.73034609  0.73463023  0.50000000  1
  N  N29  1  0.74586273  0.51940553  0.00000000  1
  N  N30  1  0.49616177  0.75731128  0.00000000  1
  N  N31  1  0.49504015  0.50768986  0.50000000  1
