# generated using pymatgen
data_Zr7ScC8
_symmetry_space_group_name_H-M   'P 1'
_cell_length_a   9.41590980
_cell_length_b   9.41329679
_cell_length_c   4.70068451
_cell_angle_alpha   90.00000000
_cell_angle_beta   90.00000000
_cell_angle_gamma   90.00000000
_symmetry_Int_Tables_number   1
_chemical_formula_structural   Zr7ScC8
_chemical_formula_sum   'Zr14 Sc2 C16'
_cell_volume   416.64401280
_cell_formula_units_Z   2
loop_
 _symmetry_equiv_pos_site_id
 _symmetry_equiv_pos_as_xyz
  1  'x, y, z'
loop_
 _atom_site_type_symbol
 _atom_site_label
 _atom_site_symmetry_multiplicity
 _atom_site_fract_x
 _atom_site_fract_y
 _atom_site_fract_z
 _atom_site_occupancy
  Zr  Zr0  1  0.00060862  0.99794303  -0.00000000  1
  Zr  Zr1  1  0.00012922  0.25000000  0.50000000  1
  Zr  Zr2  1  0.24939138  0.99794303  0.50000000  1
  Zr  Zr3  1  0.24987078  0.25000000  -0.00000000  1
  Zr  Zr4  1  0.00060862  0.50205697  0.00000000  1
  Zr  Zr5  1  0.24939138  0.50205697  0.50000000  1
  Zr  Zr6  1  0.49941767  0.99943495  -0.00000000  1
  Zr  Zr7  1  0.49968850  0.25000000  0.50000000  1
  Zr  Zr8  1  0.75058233  0.99943495  0.50000000  1
  Zr  Zr9  1  0.75031150  0.25000000  -0.00000000  1
  Zr  Zr10  1  0.49941767  0.50056505  -0.00000000  1
  Zr  Zr11  1  0.49839599  0.75000000  0.50000000  1
  Zr  Zr12  1  0.75058233  0.50056505  0.50000000  1
  Zr  Zr13  1  0.75160401  0.75000000  -0.00000000  1
  Sc  Sc14  1  0.00117864  0.75000000  0.50000000  1
  Sc  Sc15  1  0.24882136  0.75000000  -0.00000000  1
  C  C16  1  0.00057163  0.00099949  0.50000000  1
  C  C17  1  0.99989733  0.25000000  -0.00000000  1
  C  C18  1  0.24942837  0.00099949  0.00000000  1
  C  C19  1  0.25010267  0.25000000  0.50000000  1
  C  C20  1  0.00057163  0.49900051  0.50000000  1
  C  C21  1  0.99732100  0.75000000  -0.00000000  1
  C  C22  1  0.24942837  0.49900051  0.00000000  1
  C  C23  1  0.25267900  0.75000000  0.50000000  1
  C  C24  1  0.49978671  0.99976663  0.50000000  1
  C  C25  1  0.49988579  0.25000000  -0.00000000  1
  C  C26  1  0.75021329  0.99976663  0.00000000  1
  C  C27  1  0.75011421  0.25000000  0.50000000  1
  C  C28  1  0.49978671  0.50023337  0.50000000  1
  C  C29  1  0.50183159  0.75000000  -0.00000000  1
  C  C30  1  0.75021329  0.50023337  -0.00000000  1
  C  C31  1  0.74816841  0.75000000  0.50000000  1
