# generated using pymatgen
data_Zr15ScC16
_symmetry_space_group_name_H-M   'P 1'
_cell_length_a   9.41774525
_cell_length_b   9.41774525
_cell_length_c   4.70480991
_cell_angle_alpha   90.00000000
_cell_angle_beta   90.00000000
_cell_angle_gamma   90.00000000
_symmetry_Int_Tables_number   1
_chemical_formula_structural   Zr15ScC16
_chemical_formula_sum   'Zr15 Sc1 C16'
_cell_volume   417.28806009
_cell_formula_units_Z   1
loop_
 _symmetry_equiv_pos_site_id
 _symmetry_equiv_pos_as_xyz
  1  'x, y, z'
loop_
 _atom_site_type_symbol
 _atom_site_label
 _atom_site_symmetry_multiplicity
 _atom_site_fract_x
 _atom_site_fract_y
 _atom_site_fract_z
 _atom_site_occupancy
  Zr  Zr0  1  0.99927836  0.99927836  0.00000000  1
  Zr  Zr1  1  0.99980378  0.25000000  0.50000000  1
  Zr  Zr2  1  0.25000000  0.99980378  0.50000000  1
  Zr  Zr3  1  0.25000000  0.25000000  0.00000000  1
  Zr  Zr4  1  0.99927836  0.50072164  0.00000000  1
  Zr  Zr5  1  0.99861978  0.75000000  0.50000000  1
  Zr  Zr6  1  0.25000000  0.50019622  0.50000000  1
  Zr  Zr7  1  0.25000000  0.75000000  0.00000000  1
  Zr  Zr8  1  0.50072164  0.99927836  0.00000000  1
  Zr  Zr9  1  0.50019622  0.25000000  0.50000000  1
  Zr  Zr10  1  0.75000000  0.99861978  0.50000000  1
  Zr  Zr11  1  0.75000000  0.25000000  0.00000000  1
  Zr  Zr12  1  0.50072164  0.50072164  0.00000000  1
  Zr  Zr13  1  0.50138022  0.75000000  0.50000000  1
  Zr  Zr14  1  0.75000000  0.50138022  0.50000000  1
  Sc  Sc15  1  0.75000000  0.75000000  0.00000000  1
  C  C16  1  0.99968051  0.99968051  0.50000000  1
  C  C17  1  0.00018671  0.25000000  0.00000000  1
  C  C18  1  0.25000000  0.00018671  0.00000000  1
  C  C19  1  0.25000000  0.25000000  0.50000000  1
  C  C20  1  0.99968051  0.50031949  0.50000000  1
  C  C21  1  0.00171975  0.75000000  0.00000000  1
  C  C22  1  0.25000000  0.49981329  0.00000000  1
  C  C23  1  0.25000000  0.75000000  0.50000000  1
  C  C24  1  0.50031949  0.99968051  0.50000000  1
  C  C25  1  0.49981329  0.25000000  0.00000000  1
  C  C26  1  0.75000000  0.00171975  0.00000000  1
  C  C27  1  0.75000000  0.25000000  0.50000000  1
  C  C28  1  0.50031949  0.50031949  0.50000000  1
  C  C29  1  0.49828025  0.75000000  0.00000000  1
  C  C30  1  0.75000000  0.49828025  0.00000000  1
  C  C31  1  0.75000000  0.75000000  0.50000000  1
