# generated using pymatgen
data_Zr3ScC4
_symmetry_space_group_name_H-M   'P 1'
_cell_length_a   9.39754882
_cell_length_b   9.41066239
_cell_length_c   4.69887314
_cell_angle_alpha   90.00000000
_cell_angle_beta   90.00000000
_cell_angle_gamma   90.00000000
_symmetry_Int_Tables_number   1
_chemical_formula_structural   Zr3ScC4
_chemical_formula_sum   'Zr12 Sc4 C16'
_cell_volume   415.55499212
_cell_formula_units_Z   4
loop_
 _symmetry_equiv_pos_site_id
 _symmetry_equiv_pos_as_xyz
  1  'x, y, z'
loop_
 _atom_site_type_symbol
 _atom_site_label
 _atom_site_symmetry_multiplicity
 _atom_site_fract_x
 _atom_site_fract_y
 _atom_site_fract_z
 _atom_site_occupancy
  Zr  Zr0  1  0.00000000  0.24846264  0.50000000  1
  Zr  Zr1  1  0.75000000  0.75115022  0.00000000  1
  Zr  Zr2  1  0.25000000  0.24894432  0.00000000  1
  Zr  Zr3  1  0.00000000  0.50153736  0.00000000  1
  Zr  Zr4  1  0.25000000  0.50105568  0.50000000  1
  Zr  Zr5  1  0.50000000  0.24846264  0.50000000  1
  Zr  Zr6  1  0.75000000  0.99884978  0.50000000  1
  Zr  Zr7  1  0.50000000  0.50153736  0.00000000  1
  Zr  Zr8  1  0.75000000  0.50105568  0.50000000  1
  Zr  Zr9  1  0.25000000  0.75115022  0.00000000  1
  Zr  Zr10  1  0.25000000  0.99884978  0.50000000  1
  Zr  Zr11  1  0.75000000  0.24894432  0.00000000  1
  Sc  Sc12  1  0.50000000  0.99892007  0.00000000  1
  Sc  Sc13  1  0.00000000  0.75107993  0.50000000  1
  Sc  Sc14  1  0.50000000  0.75107993  0.50000000  1
  Sc  Sc15  1  0.00000000  0.99892007  0.00000000  1
  C  C16  1  0.00000000  0.00301046  0.50000000  1
  C  C17  1  0.00000000  0.25182912  0.00000000  1
  C  C18  1  0.25000000  0.99869485  0.00000000  1
  C  C19  1  0.25000000  0.24933387  0.50000000  1
  C  C20  1  0.00000000  0.49817088  0.50000000  1
  C  C21  1  0.00000000  0.74698954  0.00000000  1
  C  C22  1  0.25000000  0.50066613  0.00000000  1
  C  C23  1  0.25000000  0.75130515  0.50000000  1
  C  C24  1  0.50000000  0.00301046  0.50000000  1
  C  C25  1  0.50000000  0.25182912  0.00000000  1
  C  C26  1  0.75000000  0.99869485  0.00000000  1
  C  C27  1  0.75000000  0.24933387  0.50000000  1
  C  C28  1  0.50000000  0.49817088  0.50000000  1
  C  C29  1  0.50000000  0.74698954  0.00000000  1
  C  C30  1  0.75000000  0.50066613  0.00000000  1
  C  C31  1  0.75000000  0.75130515  0.50000000  1
