# generated using pymatgen
data_Zr9Sc7C16
_symmetry_space_group_name_H-M   'P 1'
_cell_length_a   9.40043516
_cell_length_b   9.40724699
_cell_length_c   4.69967197
_cell_angle_alpha   90.00000000
_cell_angle_beta   90.00000000
_cell_angle_gamma   90.00000000
_symmetry_Int_Tables_number   1
_chemical_formula_structural   Zr9Sc7C16
_chemical_formula_sum   'Zr9 Sc7 C16'
_cell_volume   415.60240379
_cell_formula_units_Z   1
loop_
 _symmetry_equiv_pos_site_id
 _symmetry_equiv_pos_as_xyz
  1  'x, y, z'
loop_
 _atom_site_type_symbol
 _atom_site_label
 _atom_site_symmetry_multiplicity
 _atom_site_fract_x
 _atom_site_fract_y
 _atom_site_fract_z
 _atom_site_occupancy
  Zr  Zr0  1  0.75000000  0.75038922  0.00000000  1
  Zr  Zr1  1  0.99980232  0.50044731  0.00000000  1
  Zr  Zr2  1  0.25000000  0.50054505  0.50000000  1
  Zr  Zr3  1  0.49941952  0.24938356  0.50000000  1
  Zr  Zr4  1  0.75000000  0.99982033  0.50000000  1
  Zr  Zr5  1  0.50019768  0.50044731  0.00000000  1
  Zr  Zr6  1  0.00058048  0.24938356  0.50000000  1
  Zr  Zr7  1  0.25000000  0.99921701  0.50000000  1
  Zr  Zr8  1  0.75000000  0.25079292  0.00000000  1
  Sc  Sc9  1  0.25000000  0.75076255  0.00000000  1
  Sc  Sc10  1  0.00048657  0.75060136  0.50000000  1
  Sc  Sc11  1  0.25000000  0.24856391  0.00000000  1
  Sc  Sc12  1  0.00111603  0.99895309  0.00000000  1
  Sc  Sc13  1  0.49888397  0.99895309  0.00000000  1
  Sc  Sc14  1  0.75000000  0.50149238  0.50000000  1
  Sc  Sc15  1  0.49951343  0.75060136  0.50000000  1
  C  C16  1  0.00145270  0.00377497  0.50000000  1
  C  C17  1  0.99657186  0.25356823  0.00000000  1
  C  C18  1  0.25000000  0.99752682  0.00000000  1
  C  C19  1  0.25000000  0.24850401  0.50000000  1
  C  C20  1  0.00416256  0.49690899  0.50000000  1
  C  C21  1  0.99470784  0.74476123  0.00000000  1
  C  C22  1  0.25000000  0.50176524  0.00000000  1
  C  C23  1  0.25000000  0.75158030  0.50000000  1
  C  C24  1  0.49854730  0.00377497  0.50000000  1
  C  C25  1  0.50342814  0.25356823  0.00000000  1
  C  C26  1  0.75000000  0.99941512  0.00000000  1
  C  C27  1  0.75000000  0.24676170  0.50000000  1
  C  C28  1  0.49583744  0.49690899  0.50000000  1
  C  C29  1  0.50529216  0.74476123  0.00000000  1
  C  C30  1  0.75000000  0.50076579  0.00000000  1
  C  C31  1  0.75000000  0.75530016  0.50000000  1
