# generated using pymatgen
data_AlCoN2
_symmetry_space_group_name_H-M   'P 1'
_cell_length_a   8.69446479
_cell_length_b   8.73312059
_cell_length_c   4.30402823
_cell_angle_alpha   90.15652980
_cell_angle_beta   90.00000000
_cell_angle_gamma   90.00000000
_symmetry_Int_Tables_number   1
_chemical_formula_structural   AlCoN2
_chemical_formula_sum   'Al8 Co8 N16'
_cell_volume   326.80282405
_cell_formula_units_Z   8
loop_
 _symmetry_equiv_pos_site_id
 _symmetry_equiv_pos_as_xyz
  1  'x, y, z'
loop_
 _atom_site_type_symbol
 _atom_site_label
 _atom_site_symmetry_multiplicity
 _atom_site_fract_x
 _atom_site_fract_y
 _atom_site_fract_z
 _atom_site_occupancy
  Co  Co0  1  0.99100108  0.01770328  0.00383273  1
  Co  Co1  1  0.99425348  0.25182743  0.50095235  1
  Co  Co2  1  0.00589552  0.48631650  0.99756986  1
  Co  Co3  1  0.25945945  0.49711445  0.49696665  1
  Co  Co4  1  0.50589552  0.26368350  0.50243014  1
  Co  Co5  1  0.75945945  0.25288555  0.00303335  1
  Co  Co6  1  0.49425348  0.49817257  0.99904765  1
  Co  Co7  1  0.49100108  0.73229672  0.49616727  1
  Al  Al8  1  0.24764738  0.00037672  0.50567299  1
  Al  Al9  1  0.25060096  0.25017467  0.98996011  1
  Al  Al10  1  0.99876843  0.74818184  0.50614037  1
  Al  Al11  1  0.24685154  0.75113059  0.00767010  1
  Al  Al12  1  0.49876843  0.00181816  0.99385963  1
  Al  Al13  1  0.74685154  0.99886941  0.49232990  1
  Al  Al14  1  0.75060096  0.49982533  0.51003989  1
  Al  Al15  1  0.74764738  0.74962328  0.99432701  1
  N  N16  1  0.12647708  0.13012133  0.25025475  1
  N  N17  1  0.12886645  0.37712852  0.73277658  1
  N  N18  1  0.37438362  0.12601437  0.74624478  1
  N  N19  1  0.37940404  0.37109628  0.25147591  1
  N  N20  1  0.12496880  0.61985606  0.25230726  1
  N  N21  1  0.12260566  0.87547615  0.75588905  1
  N  N22  1  0.37587695  0.62244916  0.75069971  1
  N  N23  1  0.37293954  0.87770783  0.24886155  1
  N  N24  1  0.62496880  0.13014394  0.24769274  1
  N  N25  1  0.62886645  0.37287148  0.76722342  1
  N  N26  1  0.87587695  0.12755084  0.74930029  1
  N  N27  1  0.87940404  0.37890372  0.24852409  1
  N  N28  1  0.62647708  0.61987867  0.24974525  1
  N  N29  1  0.62260566  0.87452385  0.74411095  1
  N  N30  1  0.87438362  0.62398563  0.75375522  1
  N  N31  1  0.87293954  0.87229217  0.25113845  1
