# generated using pymatgen
data_Zr13Sc3C16
_symmetry_space_group_name_H-M   'P 1'
_cell_length_a   9.41114931
_cell_length_b   9.41114931
_cell_length_c   4.70122449
_cell_angle_alpha   90.00000000
_cell_angle_beta   90.00000000
_cell_angle_gamma   90.01608652
_symmetry_Int_Tables_number   1
_chemical_formula_structural   Zr13Sc3C16
_chemical_formula_sum   'Zr13 Sc3 C16'
_cell_volume   416.38617366
_cell_formula_units_Z   1
loop_
 _symmetry_equiv_pos_site_id
 _symmetry_equiv_pos_as_xyz
  1  'x, y, z'
loop_
 _atom_site_type_symbol
 _atom_site_label
 _atom_site_symmetry_multiplicity
 _atom_site_fract_x
 _atom_site_fract_y
 _atom_site_fract_z
 _atom_site_occupancy
  Zr  Zr0  1  0.99941269  0.99931900  0.00000000  1
  Zr  Zr1  1  0.99868517  0.25000937  0.50000000  1
  Zr  Zr2  1  0.75068100  0.75058731  0.00000000  1
  Zr  Zr3  1  0.25070754  0.24944720  0.00000000  1
  Zr  Zr4  1  0.99937345  0.50096343  0.00000000  1
  Zr  Zr5  1  0.24936596  0.50063404  0.50000000  1
  Zr  Zr6  1  0.49999063  0.75131483  0.50000000  1
  Zr  Zr7  1  0.50133780  0.24866220  0.50000000  1
  Zr  Zr8  1  0.74935537  0.00064463  0.50000000  1
  Zr  Zr9  1  0.50055280  0.49929246  0.00000000  1
  Zr  Zr10  1  0.75055246  0.49911858  0.50000000  1
  Zr  Zr11  1  0.24903657  0.75062655  0.00000000  1
  Zr  Zr12  1  0.25088142  0.99944754  0.50000000  1
  Sc  Sc13  1  0.74946882  0.24937742  0.00000000  1
  Sc  Sc14  1  0.50062258  0.00053118  0.00000000  1
  Sc  Sc15  1  0.99985496  0.75014504  0.50000000  1
  C  C16  1  0.99950797  0.00260918  0.50000000  1
  C  C17  1  0.00215663  0.25009252  0.00000000  1
  C  C18  1  0.24783069  0.99944473  0.00000000  1
  C  C19  1  0.25049848  0.24966865  0.50000000  1
  C  C20  1  0.99954607  0.49796084  0.50000000  1
  C  C21  1  0.00011321  0.74988679  0.00000000  1
  C  C22  1  0.24954840  0.50045160  0.00000000  1
  C  C23  1  0.25203916  0.75045393  0.50000000  1
  C  C24  1  0.50049905  0.00065707  0.50000000  1
  C  C25  1  0.49789997  0.25210003  0.00000000  1
  C  C26  1  0.75295327  0.99704673  0.00000000  1
  C  C27  1  0.74934293  0.24950095  0.50000000  1
  C  C28  1  0.50033135  0.49950152  0.50000000  1
  C  C29  1  0.49990748  0.74784337  0.00000000  1
  C  C30  1  0.75055527  0.50216931  0.00000000  1
  C  C31  1  0.74739082  0.75049203  0.50000000  1
