# generated using pymatgen
data_AlBN2
_symmetry_space_group_name_H-M   'P 1'
_cell_length_a   8.09796634
_cell_length_b   7.99296508
_cell_length_c   4.02681510
_cell_angle_alpha   90.06910409
_cell_angle_beta   90.04385598
_cell_angle_gamma   89.99784457
_symmetry_Int_Tables_number   1
_chemical_formula_structural   AlBN2
_chemical_formula_sum   'Al8 B8 N16'
_cell_volume   260.64243695
_cell_formula_units_Z   8
loop_
 _symmetry_equiv_pos_site_id
 _symmetry_equiv_pos_as_xyz
  1  'x, y, z'
loop_
 _atom_site_type_symbol
 _atom_site_label
 _atom_site_symmetry_multiplicity
 _atom_site_fract_x
 _atom_site_fract_y
 _atom_site_fract_z
 _atom_site_occupancy
  Al  Al0  1  0.00919147  0.99318978  0.00104571  1
  Al  Al1  1  0.25045593  0.24112952  0.99931053  1
  Al  Al2  1  0.23917929  0.50633446  0.49852761  1
  Al  Al3  1  0.74723248  0.99674623  0.50576223  1
  Al  Al4  1  0.75016287  0.24824419  0.00343254  1
  Al  Al5  1  0.49938877  0.49874454  0.99999845  1
  Al  Al6  1  0.49449784  0.76529491  0.50149785  1
  Al  Al7  1  0.76208934  0.50271294  0.50413254  1
  B  B8  1  0.00698840  0.25501303  0.51110099  1
  B  B9  1  0.24959241  0.99580207  0.48902719  1
  B  B10  1  0.00251463  0.50882710  0.00009665  1
  B  B11  1  0.00562327  0.74966997  0.48797810  1
  B  B12  1  0.24098634  0.75868394  0.97971454  1
  B  B13  1  0.49041458  0.99685673  0.99957099  1
  B  B14  1  0.49292831  0.23446025  0.49147599  1
  B  B15  1  0.75971445  0.75111027  0.02045681  1
  N  N16  1  0.12770499  0.12388168  0.30982509  1
  N  N17  1  0.10354897  0.37998896  0.76042137  1
  N  N18  1  0.38286964  0.10266183  0.72209701  1
  N  N19  1  0.38386450  0.36085143  0.28492515  1
  N  N20  1  0.11523109  0.64010349  0.21693396  1
  N  N21  1  0.13680973  0.86443372  0.70880280  1
  N  N22  1  0.35783896  0.64133773  0.78120593  1
  N  N23  1  0.35276481  0.88911402  0.21320130  1
  N  N24  1  0.59510799  0.11632837  0.24511034  1
  N  N25  1  0.61067493  0.35706846  0.71004691  1
  N  N26  1  0.89094885  0.13751853  0.72098059  1
  N  N27  1  0.90436996  0.37779595  0.24876974  1
  N  N28  1  0.64148833  0.63856863  0.22916780  1
  N  N29  1  0.62893632  0.87773996  0.81656018  1
  N  N30  1  0.88860659  0.63748541  0.77774563  1
  N  N31  1  0.87827398  0.85230192  0.26107747  1
