# generated using pymatgen
data_Zr5Sc3C8
_symmetry_space_group_name_H-M   'P 1'
_cell_length_a   9.40532257
_cell_length_b   9.39867300
_cell_length_c   4.69952808
_cell_angle_alpha   90.00000000
_cell_angle_beta   90.00000000
_cell_angle_gamma   90.00000000
_symmetry_Int_Tables_number   1
_chemical_formula_structural   Zr5Sc3C8
_chemical_formula_sum   'Zr10 Sc6 C16'
_cell_volume   415.42677451
_cell_formula_units_Z   2
loop_
 _symmetry_equiv_pos_site_id
 _symmetry_equiv_pos_as_xyz
  1  'x, y, z'
loop_
 _atom_site_type_symbol
 _atom_site_label
 _atom_site_symmetry_multiplicity
 _atom_site_fract_x
 _atom_site_fract_y
 _atom_site_fract_z
 _atom_site_occupancy
  Zr  Zr0  1  0.75086762  0.75100903  0.00000000  1
  Zr  Zr1  1  0.00096612  0.50000000  0.00000000  1
  Zr  Zr2  1  0.24925485  0.50000000  0.50000000  1
  Zr  Zr3  1  0.49877938  0.24881725  0.50000000  1
  Zr  Zr4  1  0.75048346  0.00000000  0.50000000  1
  Zr  Zr5  1  0.49900836  0.50000000  0.00000000  1
  Zr  Zr6  1  0.75068325  0.50000000  0.50000000  1
  Zr  Zr7  1  0.24911484  0.00000000  0.50000000  1
  Zr  Zr8  1  0.75086762  0.24899097  0.00000000  1
  Zr  Zr9  1  0.49877938  0.75118275  0.50000000  1
  Sc  Sc10  1  0.00111160  0.75095427  0.50000000  1
  Sc  Sc11  1  0.24907094  0.24924808  0.00000000  1
  Sc  Sc12  1  0.24907094  0.75075192  0.00000000  1
  Sc  Sc13  1  0.00059149  0.00000000  0.00000000  1
  Sc  Sc14  1  0.00111160  0.24904573  0.50000000  1
  Sc  Sc15  1  0.49912675  0.00000000  0.00000000  1
  C  C16  1  0.00164607  0.00000000  0.50000000  1
  C  C17  1  0.99613343  0.25386289  0.00000000  1
  C  C18  1  0.24728318  0.00000000  0.00000000  1
  C  C19  1  0.25352604  0.24880678  0.50000000  1
  C  C20  1  0.00129624  0.50000000  0.50000000  1
  C  C21  1  0.99613343  0.74613711  0.00000000  1
  C  C22  1  0.24941355  0.50000000  0.00000000  1
  C  C23  1  0.25352604  0.75119322  0.50000000  1
  C  C24  1  0.49917011  0.00000000  0.50000000  1
  C  C25  1  0.50266259  0.25265745  0.00000000  1
  C  C26  1  0.75160975  0.00000000  0.00000000  1
  C  C27  1  0.74779796  0.24928249  0.50000000  1
  C  C28  1  0.49972332  0.50000000  0.50000000  1
  C  C29  1  0.50266259  0.74734255  0.00000000  1
  C  C30  1  0.75072953  0.50000000  0.00000000  1
  C  C31  1  0.74779796  0.75071751  0.50000000  1
