# generated using pymatgen
data_SiWC2
_symmetry_space_group_name_H-M   'P 1'
_cell_length_a   11.30366065
_cell_length_b   6.12023448
_cell_length_c   5.63438016
_cell_angle_alpha   90.00000000
_cell_angle_beta   90.00000000
_cell_angle_gamma   122.11085192
_symmetry_Int_Tables_number   1
_chemical_formula_structural   SiWC2
_chemical_formula_sum   'Si8 W8 C16'
_cell_volume   330.16241200
_cell_formula_units_Z   8
loop_
 _symmetry_equiv_pos_site_id
 _symmetry_equiv_pos_as_xyz
  1  'x, y, z'
loop_
 _atom_site_type_symbol
 _atom_site_label
 _atom_site_symmetry_multiplicity
 _atom_site_fract_x
 _atom_site_fract_y
 _atom_site_fract_z
 _atom_site_occupancy
  Si  Si0  1  0.02125338  0.08858422  0.00000000  1
  Si  Si1  1  0.98051825  0.02325790  0.50000000  1
  Si  Si2  1  0.94744374  0.40331033  0.50000000  1
  Si  Si3  1  0.27142795  0.02014338  0.00000000  1
  Si  Si4  1  0.28578468  0.56361701  0.00000000  1
  Si  Si5  1  0.27393794  0.50673355  0.50000000  1
  Si  Si6  1  0.71100605  0.96708957  0.50000000  1
  Si  Si7  1  0.75867742  0.55633476  0.00000000  1
  C  C8  1  0.06097683  0.91574676  0.23756141  1
  C  C9  1  0.06097683  0.91574676  0.76243859  1
  C  C10  1  0.15539444  0.65625657  0.37571665  1
  C  C11  1  0.15539444  0.65625657  0.62428335  1
  C  C12  1  0.41510889  0.17914481  0.24803309  1
  C  C13  1  0.41510889  0.17914481  0.75196691  1
  C  C14  1  0.41663227  0.68775691  0.25248125  1
  C  C15  1  0.41663227  0.68775691  0.74751875  1
  C  C16  1  0.68022894  0.18668984  0.25314160  1
  C  C17  1  0.68022894  0.18668984  0.74685840  1
  C  C18  1  0.67877605  0.68771941  0.24920970  1
  C  C19  1  0.67877605  0.68771941  0.75079030  1
  C  C20  1  0.94181810  0.19631908  0.24008094  1
  C  C21  1  0.94181810  0.19631908  0.75991906  1
  C  C22  1  0.93986321  0.65639191  0.22696536  1
  C  C23  1  0.93986321  0.65639191  0.77303464  1
  W  W24  1  0.05014236  0.52972728  0.00000000  1
  W  W25  1  0.22911494  0.04692002  0.50000000  1
  W  W26  1  0.51062783  0.03260752  0.00000000  1
  W  W27  1  0.50511548  0.02495346  0.50000000  1
  W  W28  1  0.50495690  0.51538843  0.00000000  1
  W  W29  1  0.50263413  0.50605650  0.50000000  1
  W  W30  1  0.76551177  0.02322796  0.00000000  1
  W  W31  1  0.77091632  0.52666432  0.50000000  1
