# generated using pymatgen
data_AlBCN
_symmetry_space_group_name_H-M   'P 1'
_cell_length_a   6.49257639
_cell_length_b   9.14699695
_cell_length_c   4.85887939
_cell_angle_alpha   90.00000000
_cell_angle_beta   90.00000000
_cell_angle_gamma   86.72952544
_symmetry_Int_Tables_number   1
_chemical_formula_structural   AlBCN
_chemical_formula_sum   'Al8 B8 C8 N8'
_cell_volume   288.08711196
_cell_formula_units_Z   8
loop_
 _symmetry_equiv_pos_site_id
 _symmetry_equiv_pos_as_xyz
  1  'x, y, z'
loop_
 _atom_site_type_symbol
 _atom_site_label
 _atom_site_symmetry_multiplicity
 _atom_site_fract_x
 _atom_site_fract_y
 _atom_site_fract_z
 _atom_site_occupancy
  Al  Al0  1  0.96726623  0.01065600  0.00000000  1
  Al  Al1  1  0.22287455  0.03000345  0.50000000  1
  Al  Al2  1  0.03195042  0.72351860  0.50000000  1
  Al  Al3  1  0.51646455  0.23958747  0.50000000  1
  Al  Al4  1  0.72944633  0.28630149  0.00000000  1
  Al  Al5  1  0.46280431  0.52143448  0.00000000  1
  Al  Al6  1  0.75902427  0.53330420  0.50000000  1
  Al  Al7  1  0.73455488  0.75139687  0.00000000  1
  B  B8  1  0.04788680  0.31052353  0.50000000  1
  B  B9  1  0.24447214  0.28795935  0.00000000  1
  B  B10  1  0.98880230  0.42573896  0.00000000  1
  B  B11  1  0.30214250  0.54213267  0.50000000  1
  B  B12  1  0.24806924  0.81491720  0.00000000  1
  B  B13  1  0.47627201  0.04178995  0.00000000  1
  B  B14  1  0.74014166  0.94050327  0.50000000  1
  B  B15  1  0.50924123  0.80771531  0.50000000  1
  N  N16  1  0.23678822  0.22798819  0.50000000  1
  N  N17  1  0.27096323  0.97411286  0.00000000  1
  N  N18  1  0.20779519  0.44848540  0.00000000  1
  N  N19  1  0.02408441  0.78783923  0.00000000  1
  N  N20  1  0.67929760  0.96213237  0.00000000  1
  N  N21  1  0.74245444  0.76039524  0.50000000  1
  N  N22  1  0.43530463  0.71980019  0.00000000  1
  N  N23  1  0.50014706  0.45601004  0.50000000  1
  C  C24  1  0.01339691  0.24197695  0.00000000  1
  C  C25  1  0.91559047  0.04381587  0.50000000  1
  C  C26  1  0.32565057  0.71392656  0.50000000  1
  C  C27  1  0.06866752  0.49113473  0.50000000  1
  C  C28  1  0.85112815  0.20259928  0.50000000  1
  C  C29  1  0.46255270  0.21243481  0.00000000  1
  C  C30  1  0.51210941  0.97835317  0.50000000  1
  C  C31  1  0.77265605  0.51151235  0.00000000  1
