# generated using pymatgen
data_Zr11Sc5C16
_symmetry_space_group_name_H-M   'P 1'
_cell_length_a   9.40600174
_cell_length_b   9.40341295
_cell_length_c   4.69941355
_cell_angle_alpha   90.00000000
_cell_angle_beta   90.00000000
_cell_angle_gamma   90.00265829
_symmetry_Int_Tables_number   1
_chemical_formula_structural   Zr11Sc5C16
_chemical_formula_sum   'Zr11 Sc5 C16'
_cell_volume   415.65616620
_cell_formula_units_Z   1
loop_
 _symmetry_equiv_pos_site_id
 _symmetry_equiv_pos_as_xyz
  1  'x, y, z'
loop_
 _atom_site_type_symbol
 _atom_site_label
 _atom_site_symmetry_multiplicity
 _atom_site_fract_x
 _atom_site_fract_y
 _atom_site_fract_z
 _atom_site_occupancy
  Zr  Zr0  1  0.00109350  0.24835048  0.50000000  1
  Zr  Zr1  1  0.75027484  0.75053291  0.00000000  1
  Zr  Zr2  1  0.00088551  0.50078792  0.00000000  1
  Zr  Zr3  1  0.24998099  0.50043106  0.50000000  1
  Zr  Zr4  1  0.49849893  0.25008787  0.50000000  1
  Zr  Zr5  1  0.75148591  0.99910307  0.50000000  1
  Zr  Zr6  1  0.49868736  0.50142553  0.00000000  1
  Zr  Zr7  1  0.74946152  0.50070225  0.50000000  1
  Zr  Zr8  1  0.24911170  0.99887756  0.50000000  1
  Zr  Zr9  1  0.75024755  0.24956678  0.00000000  1
  Zr  Zr10  1  0.49912718  0.99930833  0.00000000  1
  Sc  Sc11  1  0.49912655  0.75004720  0.50000000  1
  Sc  Sc12  1  0.00132698  0.99888312  0.00000000  1
  Sc  Sc13  1  0.00105365  0.75105362  0.50000000  1
  Sc  Sc14  1  0.24941315  0.24952589  0.00000000  1
  Sc  Sc15  1  0.24999187  0.75024163  0.00000000  1
  C  C16  1  0.00126718  0.00297667  0.50000000  1
  C  C17  1  0.99743891  0.25255727  0.00000000  1
  C  C18  1  0.25332302  0.99767399  0.00000000  1
  C  C19  1  0.24944395  0.24948659  0.50000000  1
  C  C20  1  0.00097752  0.49776753  0.50000000  1
  C  C21  1  0.99659387  0.74628915  0.00000000  1
  C  C22  1  0.25010492  0.50173459  0.00000000  1
  C  C23  1  0.24880908  0.75086842  0.50000000  1
  C  C24  1  0.49907385  0.00236830  0.50000000  1
  C  C25  1  0.50171663  0.25003742  0.00000000  1
  C  C26  1  0.74816779  0.99947797  0.00000000  1
  C  C27  1  0.75029203  0.24994791  0.50000000  1
  C  C28  1  0.49914147  0.49829631  0.50000000  1
  C  C29  1  0.50307705  0.74990865  0.00000000  1
  C  C30  1  0.74977054  0.50084651  0.00000000  1
  C  C31  1  0.75103502  0.75083747  0.50000000  1
