# generated using pymatgen
data_AlV2C
_symmetry_space_group_name_H-M   'P 1'
_cell_length_a   5.85970960
_cell_length_b   2.92985481
_cell_length_c   13.23642479
_cell_angle_alpha   90.00000000
_cell_angle_beta   90.00000000
_cell_angle_gamma   120.00000013
_symmetry_Int_Tables_number   1
_chemical_formula_structural   AlV2C
_chemical_formula_sum   'Al4 V8 C4'
_cell_volume   196.79928665
_cell_formula_units_Z   4
loop_
 _symmetry_equiv_pos_site_id
 _symmetry_equiv_pos_as_xyz
  1  'x, y, z'
loop_
 _atom_site_type_symbol
 _atom_site_label
 _atom_site_symmetry_multiplicity
 _atom_site_fract_x
 _atom_site_fract_y
 _atom_site_fract_z
 _atom_site_occupancy
  Al  Al0  1  0.16666806  0.66666807  0.25000000  1
  Al  Al1  1  0.33333194  0.33333193  0.75000000  1
  Al  Al2  1  0.66666807  0.66666807  0.25000000  1
  Al  Al3  1  0.83333193  0.33333193  0.75000000  1
  V  V4  1  0.16667626  0.66667627  0.91554808  1
  V  V5  1  0.33332374  0.33332373  0.41554808  1
  V  V6  1  0.33332374  0.33332373  0.08445192  1
  V  V7  1  0.16667626  0.66667627  0.58445192  1
  V  V8  1  0.66667627  0.66667627  0.91554808  1
  V  V9  1  0.83332373  0.33332373  0.41554808  1
  V  V10  1  0.83332373  0.33332373  0.08445192  1
  V  V11  1  0.66667627  0.66667627  0.58445192  1
  C  C12  1  -0.00000000  0.00000000  0.00000000  1
  C  C13  1  0.00000000  0.00000000  0.50000000  1
  C  C14  1  0.50000000  0.00000000  0.00000000  1
  C  C15  1  0.50000000  -0.00000000  0.50000000  1
