# generated using pymatgen
data_AlV2C
_symmetry_space_group_name_H-M   'P 1'
_cell_length_a   6.05951606
_cell_length_b   3.02975803
_cell_length_c   13.72633688
_cell_angle_alpha   90.00000000
_cell_angle_beta   90.00000000
_cell_angle_gamma   119.99999993
_symmetry_Int_Tables_number   1
_chemical_formula_structural   AlV2C
_chemical_formula_sum   'Al4 V8 C4'
_cell_volume   218.23840098
_cell_formula_units_Z   4
loop_
 _symmetry_equiv_pos_site_id
 _symmetry_equiv_pos_as_xyz
  1  'x, y, z'
loop_
 _atom_site_type_symbol
 _atom_site_label
 _atom_site_symmetry_multiplicity
 _atom_site_fract_x
 _atom_site_fract_y
 _atom_site_fract_z
 _atom_site_occupancy
  Al  Al0  1  0.16666666  0.66666667  0.25000000  1
  Al  Al1  1  0.33333334  0.33333333  0.75000000  1
  Al  Al2  1  0.66666667  0.66666667  0.25000000  1
  Al  Al3  1  0.83333333  0.33333333  0.75000000  1
  V  V4  1  0.16666670  0.66666671  0.58032394  1
  V  V5  1  0.33333330  0.33333329  0.08032394  1
  V  V6  1  0.33333330  0.33333329  0.41967606  1
  V  V7  1  0.16666670  0.66666671  0.91967606  1
  V  V8  1  0.66666671  0.66666671  0.58032394  1
  V  V9  1  0.83333329  0.33333329  0.08032394  1
  V  V10  1  0.83333329  0.33333329  0.41967606  1
  V  V11  1  0.66666671  0.66666671  0.91967606  1
  C  C12  1  0.00000000  -0.00000000  0.00000000  1
  C  C13  1  0.00000000  -0.00000000  0.50000000  1
  C  C14  1  0.50000000  -0.00000000  0.00000000  1
  C  C15  1  0.50000000  -0.00000000  0.50000000  1
