# generated using pymatgen
data_AlV2C
_symmetry_space_group_name_H-M   'P 1'
_cell_length_a   5.77670580
_cell_length_b   2.88835291
_cell_length_c   13.05935468
_cell_angle_alpha   90.00000000
_cell_angle_beta   90.00000000
_cell_angle_gamma   120.00000014
_symmetry_Int_Tables_number   1
_chemical_formula_structural   AlV2C
_chemical_formula_sum   'Al4 V8 C4'
_cell_volume   188.70475941
_cell_formula_units_Z   4
loop_
 _symmetry_equiv_pos_site_id
 _symmetry_equiv_pos_as_xyz
  1  'x, y, z'
loop_
 _atom_site_type_symbol
 _atom_site_label
 _atom_site_symmetry_multiplicity
 _atom_site_fract_x
 _atom_site_fract_y
 _atom_site_fract_z
 _atom_site_occupancy
  Al  Al0  1  0.16667280  0.66667281  0.25000000  1
  Al  Al1  1  0.33332720  0.33332719  0.75000000  1
  Al  Al2  1  0.66667281  0.66667281  0.25000000  1
  Al  Al3  1  0.83332719  0.33332719  0.75000000  1
  V  V4  1  0.16669007  0.66669008  0.91411062  1
  V  V5  1  0.33330993  0.33330992  0.41411062  1
  V  V6  1  0.33330993  0.33330992  0.08588938  1
  V  V7  1  0.16669007  0.66669008  0.58588938  1
  V  V8  1  0.66669008  0.66669008  0.91411062  1
  V  V9  1  0.83330992  0.33330992  0.41411062  1
  V  V10  1  0.83330992  0.33330992  0.08588938  1
  V  V11  1  0.66669008  0.66669008  0.58588938  1
  C  C12  1  0.00000000  -0.00000000  -0.00000000  1
  C  C13  1  0.00000000  -0.00000000  0.50000000  1
  C  C14  1  0.50000000  -0.00000000  -0.00000000  1
  C  C15  1  0.50000000  -0.00000000  0.50000000  1
