# generated using pymatgen
data_Hf9Sc7C16
_symmetry_space_group_name_H-M   'P 1'
_cell_length_a   9.31074972
_cell_length_b   9.32411562
_cell_length_c   4.66016060
_cell_angle_alpha   90.00000000
_cell_angle_beta   90.00000000
_cell_angle_gamma   90.00000000
_symmetry_Int_Tables_number   1
_chemical_formula_structural   Hf9Sc7C16
_chemical_formula_sum   'Hf9 Sc7 C16'
_cell_volume   404.56954456
_cell_formula_units_Z   1
loop_
 _symmetry_equiv_pos_site_id
 _symmetry_equiv_pos_as_xyz
  1  'x, y, z'
loop_
 _atom_site_type_symbol
 _atom_site_label
 _atom_site_symmetry_multiplicity
 _atom_site_fract_x
 _atom_site_fract_y
 _atom_site_fract_z
 _atom_site_occupancy
  Hf  Hf0  1  0.00043641  0.99986504  0.00000000  1
  Hf  Hf1  1  0.49956359  0.99986504  0.00000000  1
  Hf  Hf2  1  0.49920831  0.24969759  0.50000000  1
  Hf  Hf3  1  0.75000000  0.25071355  0.00000000  1
  Hf  Hf4  1  0.50079008  0.50055365  0.00000000  1
  Hf  Hf5  1  0.99920992  0.50055365  0.00000000  1
  Hf  Hf6  1  0.25000000  0.75044998  0.00000000  1
  Hf  Hf7  1  0.00079169  0.24969759  0.50000000  1
  Hf  Hf8  1  0.25000000  0.49871177  0.50000000  1
  Sc  Sc9  1  0.50122098  0.75049126  0.50000000  1
  Sc  Sc10  1  0.75000000  0.75011008  0.00000000  1
  Sc  Sc11  1  0.25000000  0.24881229  0.00000000  1
  Sc  Sc12  1  0.75000000  0.50110175  0.50000000  1
  Sc  Sc13  1  0.99877902  0.75049126  0.50000000  1
  Sc  Sc14  1  0.75000000  0.99885508  0.50000000  1
  Sc  Sc15  1  0.25000000  0.00003963  0.50000000  1
  C  C16  1  0.00057236  0.00512862  0.50000000  1
  C  C17  1  0.99696800  0.24974834  0.00000000  1
  C  C18  1  0.25000000  0.99501380  0.00000000  1
  C  C19  1  0.25000000  0.25354807  0.50000000  1
  C  C20  1  0.00361974  0.49591180  0.50000000  1
  C  C21  1  0.00322006  0.75057511  0.00000000  1
  C  C22  1  0.25000000  0.50343980  0.00000000  1
  C  C23  1  0.25000000  0.74483213  0.50000000  1
  C  C24  1  0.49942764  0.00512862  0.50000000  1
  C  C25  1  0.50303200  0.24974834  0.00000000  1
  C  C26  1  0.75000000  0.00304920  0.00000000  1
  C  C27  1  0.75000000  0.25044290  0.50000000  1
  C  C28  1  0.49638026  0.49591180  0.50000000  1
  C  C29  1  0.49677994  0.75057511  0.00000000  1
  C  C30  1  0.75000000  0.49756306  0.00000000  1
  C  C31  1  0.75000000  0.74937403  0.50000000  1
