# generated using pymatgen
data_Hf11Sc5C16
_symmetry_space_group_name_H-M   'P 1'
_cell_length_a   9.30731955
_cell_length_b   9.30913846
_cell_length_c   4.65267706
_cell_angle_alpha   90.00000000
_cell_angle_beta   90.00000000
_cell_angle_gamma   90.04947275
_symmetry_Int_Tables_number   1
_chemical_formula_structural   Hf11Sc5C16
_chemical_formula_sum   'Hf11 Sc5 C16'
_cell_volume   403.12233626
_cell_formula_units_Z   1
loop_
 _symmetry_equiv_pos_site_id
 _symmetry_equiv_pos_as_xyz
  1  'x, y, z'
loop_
 _atom_site_type_symbol
 _atom_site_label
 _atom_site_symmetry_multiplicity
 _atom_site_fract_x
 _atom_site_fract_y
 _atom_site_fract_z
 _atom_site_occupancy
  Hf  Hf0  1  0.99969832  0.00032733  0.00000000  1
  Hf  Hf1  1  0.24923814  0.25125838  0.00000000  1
  Hf  Hf2  1  0.75058871  0.99859610  0.50000000  1
  Hf  Hf3  1  0.50057811  0.99866765  0.00000000  1
  Hf  Hf4  1  0.49972747  0.25022990  0.50000000  1
  Hf  Hf5  1  0.75129836  0.24968871  0.00000000  1
  Hf  Hf6  1  0.75036196  0.50114925  0.50000000  1
  Hf  Hf7  1  0.24959913  0.00042225  0.50000000  1
  Hf  Hf8  1  0.49917095  0.50100270  0.00000000  1
  Hf  Hf9  1  0.00068073  0.49996167  0.00000000  1
  Hf  Hf10  1  0.24995336  0.74923568  0.00000000  1
  Sc  Sc11  1  0.00064730  0.25048422  0.50000000  1
  Sc  Sc12  1  0.99897736  0.74977121  0.50000000  1
  Sc  Sc13  1  0.24959404  0.50035535  0.50000000  1
  Sc  Sc14  1  0.50045774  0.74957915  0.50000000  1
  Sc  Sc15  1  0.74967353  0.74994730  0.00000000  1
  C  C16  1  0.99947197  0.99962652  0.50000000  1
  C  C17  1  0.00086006  0.25041947  0.00000000  1
  C  C18  1  0.24963860  0.00019252  0.00000000  1
  C  C19  1  0.25362303  0.24671924  0.50000000  1
  C  C20  1  0.99510470  0.50053153  0.50000000  1
  C  C21  1  0.00456996  0.74945883  0.00000000  1
  C  C22  1  0.24959245  0.49992058  0.00000000  1
  C  C23  1  0.24983261  0.75457924  0.50000000  1
  C  C24  1  0.50044858  0.00227105  0.50000000  1
  C  C25  1  0.49993095  0.24998154  0.00000000  1
  C  C26  1  0.75014744  0.00231030  0.00000000  1
  C  C27  1  0.74743562  0.24971725  0.50000000  1
  C  C28  1  0.50419311  0.49682315  0.50000000  1
  C  C29  1  0.49533922  0.74932860  0.00000000  1
  C  C30  1  0.75010951  0.49716634  0.00000000  1
  C  C31  1  0.74945699  0.75027699  0.50000000  1
