# generated using pymatgen
data_AlCrN2
_symmetry_space_group_name_H-M   'P 1'
_cell_length_a   8.78619660
_cell_length_b   8.69815917
_cell_length_c   4.39760036
_cell_angle_alpha   90.54343592
_cell_angle_beta   89.36061782
_cell_angle_gamma   90.93202099
_symmetry_Int_Tables_number   1
_chemical_formula_structural   AlCrN2
_chemical_formula_sum   'Al8 Cr8 N16'
_cell_volume   336.00111754
_cell_formula_units_Z   8
loop_
 _symmetry_equiv_pos_site_id
 _symmetry_equiv_pos_as_xyz
  1  'x, y, z'
loop_
 _atom_site_type_symbol
 _atom_site_label
 _atom_site_symmetry_multiplicity
 _atom_site_fract_x
 _atom_site_fract_y
 _atom_site_fract_z
 _atom_site_occupancy
  Al  Al0  1  0.00643725  0.00134297  0.99938835  1
  Al  Al1  1  0.00300016  0.24126542  0.49470379  1
  Al  Al2  1  0.24726254  0.99806251  0.49411907  1
  Al  Al3  1  0.00078713  0.74828354  0.50493450  1
  Al  Al4  1  0.25176642  0.50411550  0.50249190  1
  Al  Al5  1  0.24903049  0.74866398  0.99637528  1
  Al  Al6  1  0.50229503  0.99825749  0.02457055  1
  Al  Al7  1  0.75418954  0.49708353  0.50576572  1
  Cr  Cr8  1  0.27885080  0.27521924  0.94979320  1
  Cr  Cr9  1  0.98381505  0.49496083  0.98583534  1
  Cr  Cr10  1  0.47898727  0.27253111  0.56171811  1
  Cr  Cr11  1  0.72590789  0.99061569  0.46007373  1
  Cr  Cr12  1  0.75960778  0.24594353  0.98428305  1
  Cr  Cr13  1  0.48139137  0.48775233  0.94908282  1
  Cr  Cr14  1  0.53078942  0.76477668  0.45515933  1
  Cr  Cr15  1  0.72188661  0.76906251  0.06782693  1
  N  N16  1  0.13281518  0.12680014  0.24511879  1
  N  N17  1  0.12043034  0.37727002  0.75590790  1
  N  N18  1  0.37619662  0.10975994  0.75829460  1
  N  N19  1  0.37669571  0.37833451  0.25771672  1
  N  N20  1  0.12245401  0.61953634  0.24805847  1
  N  N21  1  0.12563316  0.87215390  0.75075477  1
  N  N22  1  0.37876643  0.63487069  0.73580049  1
  N  N23  1  0.37009032  0.87212410  0.25070808  1
  N  N24  1  0.62502816  0.13960034  0.26105997  1
  N  N25  1  0.63723263  0.37029662  0.75986559  1
  N  N26  1  0.87450617  0.11526953  0.74673518  1
  N  N27  1  0.87908056  0.36942796  0.26179148  1
  N  N28  1  0.62231023  0.60015354  0.24743976  1
  N  N29  1  0.62522354  0.87407681  0.76233405  1
  N  N30  1  0.87331056  0.62604331  0.76547390  1
  N  N31  1  0.88422163  0.87634543  0.25681856  1
