# generated using pymatgen
data_MnAlN2
_symmetry_space_group_name_H-M   'P 1'
_cell_length_a   8.71645011
_cell_length_b   8.73537585
_cell_length_c   4.30909568
_cell_angle_alpha   90.08963945
_cell_angle_beta   89.56197770
_cell_angle_gamma   90.15308424
_symmetry_Int_Tables_number   1
_chemical_formula_structural   MnAlN2
_chemical_formula_sum   'Mn8 Al8 N16'
_cell_volume   328.08971973
_cell_formula_units_Z   8
loop_
 _symmetry_equiv_pos_site_id
 _symmetry_equiv_pos_as_xyz
  1  'x, y, z'
loop_
 _atom_site_type_symbol
 _atom_site_label
 _atom_site_symmetry_multiplicity
 _atom_site_fract_x
 _atom_site_fract_y
 _atom_site_fract_z
 _atom_site_occupancy
  Mn  Mn0  1  0.01626015  0.00023908  0.95443223  1
  Mn  Mn1  1  0.02332945  0.22579756  0.54908492  1
  Mn  Mn2  1  0.23846606  0.00869671  0.50997572  1
  Mn  Mn3  1  0.22936960  0.21918488  0.95936197  1
  Mn  Mn4  1  0.99970346  0.76506654  0.48019285  1
  Mn  Mn5  1  0.23931176  0.76993296  0.03652822  1
  Mn  Mn6  1  0.48988643  0.99854954  0.00452358  1
  Mn  Mn7  1  0.76381379  0.76071940  0.97958716  1
  N  N8  1  0.11557509  0.11846117  0.24650964  1
  N  N9  1  0.12649267  0.37801946  0.75645916  1
  N  N10  1  0.38248178  0.12015575  0.74456108  1
  N  N11  1  0.36964449  0.37244943  0.24108194  1
  N  N12  1  0.12610623  0.62521265  0.25493197  1
  N  N13  1  0.13076772  0.86143785  0.73482149  1
  N  N14  1  0.37025823  0.62764869  0.75961962  1
  N  N15  1  0.37688459  0.87700531  0.26271151  1
  N  N16  1  0.62382478  0.12481316  0.24911378  1
  N  N17  1  0.62520062  0.37702133  0.74925246  1
  N  N18  1  0.86897098  0.12296287  0.75048798  1
  N  N19  1  0.88016221  0.37042842  0.26299327  1
  N  N20  1  0.62825733  0.62931242  0.24808441  1
  N  N21  1  0.62116232  0.87776733  0.77037009  1
  N  N22  1  0.88184036  0.62883413  0.74441941  1
  N  N23  1  0.87472145  0.88090255  0.23689461  1
  Al  Al24  1  0.99934516  0.49973763  0.01417802  1
  Al  Al25  1  0.25341423  0.50068708  0.49951464  1
  Al  Al26  1  0.49829043  0.25481335  0.48800046  1
  Al  Al27  1  0.74659851  0.00059242  0.49676704  1
  Al  Al28  1  0.75128177  0.25382057  0.00651577  1
  Al  Al29  1  0.49625350  0.50175339  0.00059077  1
  Al  Al30  1  0.49884093  0.74726420  0.51224280  1
  Al  Al31  1  0.75348393  0.50071217  0.49619146  1
