# generated using pymatgen
data_NbAlN2
_symmetry_space_group_name_H-M   'P 1'
_cell_length_a   9.14727664
_cell_length_b   9.22712954
_cell_length_c   4.58136845
_cell_angle_alpha   89.99782516
_cell_angle_beta   90.42150462
_cell_angle_gamma   89.11072989
_symmetry_Int_Tables_number   1
_chemical_formula_structural   NbAlN2
_chemical_formula_sum   'Nb8 Al8 N16'
_cell_volume   386.62468937
_cell_formula_units_Z   8
loop_
 _symmetry_equiv_pos_site_id
 _symmetry_equiv_pos_as_xyz
  1  'x, y, z'
loop_
 _atom_site_type_symbol
 _atom_site_label
 _atom_site_symmetry_multiplicity
 _atom_site_fract_x
 _atom_site_fract_y
 _atom_site_fract_z
 _atom_site_occupancy
  Nb  Nb0  1  0.97598825  0.98739754  0.04489532  1
  Nb  Nb1  1  0.23676242  0.98928817  0.43789743  1
  Nb  Nb2  1  0.00558439  0.51184499  0.96387938  1
  Nb  Nb3  1  0.01135145  0.77429291  0.53813100  1
  Nb  Nb4  1  0.22886651  0.74621600  0.02373258  1
  Nb  Nb5  1  0.51614219  0.00824533  0.96357945  1
  Nb  Nb6  1  0.76834515  0.00295119  0.53774204  1
  Nb  Nb7  1  0.75307380  0.22867671  0.01642430  1
  Al  Al8  1  0.00707694  0.26215985  0.47200030  1
  Al  Al9  1  0.25660495  0.25974628  0.99659714  1
  Al  Al10  1  0.26030610  0.49743173  0.51191401  1
  Al  Al11  1  0.49445150  0.25995536  0.51194591  1
  Al  Al12  1  0.49899202  0.49616603  0.99653042  1
  Al  Al13  1  0.50234095  0.73221048  0.49032707  1
  Al  Al14  1  0.73825216  0.49565980  0.49100681  1
  Al  Al15  1  0.73457238  0.73289706  0.99025593  1
  N  N16  1  0.13293004  0.15443072  0.23410746  1
  N  N17  1  0.13549261  0.37548134  0.73641839  1
  N  N18  1  0.37551495  0.13931016  0.75069189  1
  N  N19  1  0.37655450  0.37906693  0.24575692  1
  N  N20  1  0.12410160  0.60354933  0.28159559  1
  N  N21  1  0.15378514  0.91148081  0.78726727  1
  N  N22  1  0.38245345  0.61722739  0.74224369  1
  N  N23  1  0.40156032  0.86994935  0.24231876  1
  N  N24  1  0.60704833  0.13014347  0.28662623  1
  N  N25  1  0.61958381  0.37835512  0.74213653  1
  N  N26  1  0.89855980  0.15898810  0.73727532  1
  N  N27  1  0.87644256  0.38778225  0.25233596  1
  N  N28  1  0.61757846  0.61160332  0.23990127  1
  N  N29  1  0.61545949  0.84949450  0.73446135  1
  N  N30  1  0.85052495  0.61252192  0.74246859  1
  N  N31  1  0.84369886  0.83547588  0.25753568  1
