# generated using pymatgen
data_AlFeN2
_symmetry_space_group_name_H-M   'P 1'
_cell_length_a   8.69388822
_cell_length_b   8.78030089
_cell_length_c   4.26719391
_cell_angle_alpha   90.00000000
_cell_angle_beta   90.00000000
_cell_angle_gamma   90.17883980
_symmetry_Int_Tables_number   1
_chemical_formula_structural   AlFeN2
_chemical_formula_sum   'Al8 Fe8 N16'
_cell_volume   325.73446616
_cell_formula_units_Z   8
loop_
 _symmetry_equiv_pos_site_id
 _symmetry_equiv_pos_as_xyz
  1  'x, y, z'
loop_
 _atom_site_type_symbol
 _atom_site_label
 _atom_site_symmetry_multiplicity
 _atom_site_fract_x
 _atom_site_fract_y
 _atom_site_fract_z
 _atom_site_occupancy
  Fe  Fe0  1  0.00662015  0.01067030  0.99015552  1
  Fe  Fe1  1  0.00661121  0.23610273  0.51509239  1
  Fe  Fe2  1  0.24338879  0.01389727  0.51509239  1
  Fe  Fe3  1  0.24337985  0.23932970  0.99015552  1
  Fe  Fe4  1  0.49220967  0.24580944  0.49202534  1
  Fe  Fe5  1  0.75779033  0.00419056  0.49202534  1
  Fe  Fe6  1  0.50594593  0.75640666  0.50033265  1
  Fe  Fe7  1  0.74405407  0.49359334  0.50033265  1
  N  N8  1  0.12500000  0.12500000  0.24708512  1
  N  N9  1  0.12297089  0.37510098  0.75225657  1
  N  N10  1  0.37559250  0.12732675  0.75132757  1
  N  N11  1  0.37038338  0.37235239  0.23633998  1
  N  N12  1  0.12500000  0.62500000  0.24867113  1
  N  N13  1  0.12702911  0.87489902  0.75225657  1
  N  N14  1  0.37537637  0.62449216  0.74674999  1
  N  N15  1  0.37232152  0.87673247  0.26717850  1
  N  N16  1  0.62500000  0.12500000  0.25350488  1
  N  N17  1  0.62422522  0.36922311  0.73842849  1
  N  N18  1  0.87440750  0.12267325  0.75132757  1
  N  N19  1  0.87767848  0.37326753  0.26717850  1
  N  N20  1  0.62500000  0.62500000  0.26188058  1
  N  N21  1  0.62577478  0.88077689  0.73842849  1
  N  N22  1  0.87462363  0.62550784  0.74674999  1
  N  N23  1  0.87961662  0.87764761  0.23633998  1
  Al  Al24  1  0.99797244  0.49927461  0.00482158  1
  Al  Al25  1  0.00074444  0.75278462  0.49502081  1
  Al  Al26  1  0.24925556  0.49721538  0.49502081  1
  Al  Al27  1  0.25202756  0.75072539  0.00482158  1
  Al  Al28  1  0.49789441  0.00027461  0.01139329  1
  Al  Al29  1  0.75210559  0.24972539  0.01139329  1
  Al  Al30  1  0.49921534  0.49710636  0.99330647  1
  Al  Al31  1  0.75078466  0.75289364  0.99330647  1
