# generated using pymatgen
data_ScTaC2
_symmetry_space_group_name_H-M   'P 1'
_cell_length_a   9.10740716
_cell_length_b   9.10152687
_cell_length_c   4.54166768
_cell_angle_alpha   90.00000000
_cell_angle_beta   90.00000000
_cell_angle_gamma   90.10669423
_symmetry_Int_Tables_number   1
_chemical_formula_structural   ScTaC2
_chemical_formula_sum   'Sc8 Ta8 C16'
_cell_volume   376.46413534
_cell_formula_units_Z   8
loop_
 _symmetry_equiv_pos_site_id
 _symmetry_equiv_pos_as_xyz
  1  'x, y, z'
loop_
 _atom_site_type_symbol
 _atom_site_label
 _atom_site_symmetry_multiplicity
 _atom_site_fract_x
 _atom_site_fract_y
 _atom_site_fract_z
 _atom_site_occupancy
  Ta  Ta0  1  0.49801272  0.75428550  0.50000000  1
  Ta  Ta1  1  0.75000000  0.50000000  0.50000000  1
  Ta  Ta2  1  0.00091911  0.50197991  0.00000000  1
  Ta  Ta3  1  0.00198726  0.24571450  0.50000000  1
  Ta  Ta4  1  0.74826756  0.24743678  0.00000000  1
  Ta  Ta5  1  0.25000000  0.50000000  0.50000000  1
  Ta  Ta6  1  0.75173244  0.75256320  0.00000000  1
  Ta  Ta7  1  0.49908090  0.49802009  0.00000000  1
  Sc  Sc8  1  0.00093590  0.75123095  0.50000000  1
  Sc  Sc9  1  0.24935533  0.24861650  0.00000000  1
  Sc  Sc10  1  0.49833491  0.99868558  0.00000000  1
  Sc  Sc11  1  0.25000001  0.99999999  0.50000000  1
  Sc  Sc12  1  0.49906410  0.24876905  0.50000000  1
  Sc  Sc13  1  0.75000001  0.00000000  0.50000000  1
  Sc  Sc14  1  0.00166508  0.00131443  0.00000000  1
  Sc  Sc15  1  0.25064465  0.75138351  0.00000000  1
  C  C16  1  0.99459079  0.25728195  0.00000000  1
  C  C17  1  0.00025382  0.01264843  0.50000000  1
  C  C18  1  0.24112895  0.26007489  0.50000000  1
  C  C19  1  0.24999999  0.00000001  0.00000000  1
  C  C20  1  0.99138445  0.74110008  0.00000000  1
  C  C21  1  0.99813134  0.49856264  0.50000000  1
  C  C22  1  0.25887106  0.73992513  0.50000000  1
  C  C23  1  0.25000000  0.50000001  0.00000000  1
  C  C24  1  0.50861555  0.25889992  0.00000000  1
  C  C25  1  0.49974618  0.98735157  0.50000000  1
  C  C26  1  0.75366946  0.25625126  0.50000000  1
  C  C27  1  0.75000000  0.99999999  0.00000000  1
  C  C28  1  0.50540921  0.74271804  0.00000000  1
  C  C29  1  0.50186866  0.50143735  0.50000000  1
  C  C30  1  0.74633054  0.74374873  0.50000000  1
  C  C31  1  0.75000000  0.50000000  0.00000000  1
