# generated using pymatgen
data_Sc7Ta9C16
_symmetry_space_group_name_H-M   'P 1'
_cell_length_a   9.07128890
_cell_length_b   9.05533386
_cell_length_c   4.53777316
_cell_angle_alpha   90.00000000
_cell_angle_beta   90.00000000
_cell_angle_gamma   90.06488277
_symmetry_Int_Tables_number   1
_chemical_formula_structural   Sc7Ta9C16
_chemical_formula_sum   'Sc7 Ta9 C16'
_cell_volume   372.74855516
_cell_formula_units_Z   1
loop_
 _symmetry_equiv_pos_site_id
 _symmetry_equiv_pos_as_xyz
  1  'x, y, z'
loop_
 _atom_site_type_symbol
 _atom_site_label
 _atom_site_symmetry_multiplicity
 _atom_site_fract_x
 _atom_site_fract_y
 _atom_site_fract_z
 _atom_site_occupancy
  Ta  Ta0  1  0.49902801  0.75521715  0.50000000  1
  Ta  Ta1  1  0.74838016  0.49897334  0.50000000  1
  Ta  Ta2  1  0.00191708  0.49944819  0.00000000  1
  Ta  Ta3  1  0.00206792  0.24744700  0.50000000  1
  Ta  Ta4  1  0.74762115  0.24627385  0.00000000  1
  Ta  Ta5  1  0.25041924  0.49805560  0.50000000  1
  Ta  Ta6  1  0.74971041  0.75554221  0.00000000  1
  Ta  Ta7  1  0.49868456  0.49751900  0.00000000  1
  Ta  Ta8  1  0.00210085  0.75415979  0.50000000  1
  Sc  Sc9  1  0.24966291  0.24800823  0.00000000  1
  Sc  Sc10  1  0.49786068  0.99898212  0.00000000  1
  Sc  Sc11  1  0.25023897  0.99976331  0.50000000  1
  Sc  Sc12  1  0.49890402  0.24820515  0.50000000  1
  Sc  Sc13  1  0.74942602  0.99965310  0.50000000  1
  Sc  Sc14  1  0.00325292  0.00071432  0.00000000  1
  Sc  Sc15  1  0.25039684  0.75270746  0.00000000  1
  C  C16  1  0.99543839  0.25646533  0.00000000  1
  C  C17  1  0.99994662  0.99888487  0.50000000  1
  C  C18  1  0.24060566  0.25975424  0.50000000  1
  C  C19  1  0.25185389  0.00265801  0.00000000  1
  C  C20  1  0.99549745  0.74469433  0.00000000  1
  C  C21  1  0.99796066  0.50030014  0.50000000  1
  C  C22  1  0.24890874  0.74312747  0.50000000  1
  C  C23  1  0.24915473  0.50119379  0.00000000  1
  C  C24  1  0.50902095  0.25886142  0.00000000  1
  C  C25  1  0.49913726  0.98647568  0.50000000  1
  C  C26  1  0.75386450  0.25542455  0.50000000  1
  C  C27  1  0.75055366  0.99950762  0.00000000  1
  C  C28  1  0.50535074  0.74365916  0.00000000  1
  C  C29  1  0.50114594  0.50147322  0.50000000  1
  C  C30  1  0.75050070  0.74580174  0.50000000  1
  C  C31  1  0.75138835  0.50104862  0.00000000  1
