# generated using pymatgen
data_Sc5Ta11C16
_symmetry_space_group_name_H-M   'P 1'
_cell_length_a   9.03671709
_cell_length_b   9.03622630
_cell_length_c   4.50482100
_cell_angle_alpha   90.00000000
_cell_angle_beta   90.00000000
_cell_angle_gamma   90.08520115
_symmetry_Int_Tables_number   1
_chemical_formula_structural   Sc5Ta11C16
_chemical_formula_sum   'Sc5 Ta11 C16'
_cell_volume   367.85345853
_cell_formula_units_Z   1
loop_
 _symmetry_equiv_pos_site_id
 _symmetry_equiv_pos_as_xyz
  1  'x, y, z'
loop_
 _atom_site_type_symbol
 _atom_site_label
 _atom_site_symmetry_multiplicity
 _atom_site_fract_x
 _atom_site_fract_y
 _atom_site_fract_z
 _atom_site_occupancy
  Ta  Ta0  1  0.99987169  0.99343938  0.00000000  1
  Ta  Ta1  1  0.25054164  0.99604189  0.50000000  1
  Ta  Ta2  1  0.74956900  0.99210636  0.50000000  1
  Ta  Ta3  1  0.49944874  0.99427564  0.00000000  1
  Ta  Ta4  1  0.25025526  0.25595090  0.00000000  1
  Ta  Ta5  1  0.74893703  0.50433374  0.50000000  1
  Ta  Ta6  1  0.50099914  0.25456898  0.50000000  1
  Ta  Ta7  1  0.00096288  0.50378278  0.00000000  1
  Ta  Ta8  1  0.25051680  0.74848504  0.00000000  1
  Ta  Ta9  1  0.00005990  0.25200207  0.50000000  1
  Ta  Ta10  1  0.74909738  0.25241331  0.00000000  1
  Sc  Sc11  1  0.25099793  0.50178687  0.50000000  1
  Sc  Sc12  1  0.74923693  0.74902149  0.00000000  1
  Sc  Sc13  1  0.49964610  0.50237434  0.00000000  1
  Sc  Sc14  1  0.99988309  0.74861933  0.50000000  1
  Sc  Sc15  1  0.50004071  0.74819627  0.50000000  1
  C  C16  1  0.99927563  0.24949410  0.00000000  1
  C  C17  1  0.00040416  0.00305314  0.50000000  1
  C  C18  1  0.24895223  0.24764161  0.50000000  1
  C  C19  1  0.24940815  0.00185140  0.00000000  1
  C  C20  1  0.00499584  0.75120764  0.00000000  1
  C  C21  1  0.99640534  0.49467172  0.50000000  1
  C  C22  1  0.24993396  0.75637808  0.50000000  1
  C  C23  1  0.24484948  0.49897688  0.00000000  1
  C  C24  1  0.50074342  0.24719747  0.00000000  1
  C  C25  1  0.49934737  0.00347101  0.50000000  1
  C  C26  1  0.75140980  0.24912127  0.50000000  1
  C  C27  1  0.75031984  0.00333608  0.00000000  1
  C  C28  1  0.49222231  0.75903951  0.00000000  1
  C  C29  1  0.50777271  0.49113315  0.50000000  1
  C  C30  1  0.74982505  0.75103861  0.50000000  1
  C  C31  1  0.75407050  0.49498990  0.00000000  1
