# generated using pymatgen
data_ScTa15C16
_symmetry_space_group_name_H-M   'P 1'
_cell_length_a   8.97241202
_cell_length_b   8.97241202
_cell_length_c   4.47737728
_cell_angle_alpha   90.00000000
_cell_angle_beta   90.00000000
_cell_angle_gamma   90.00000000
_symmetry_Int_Tables_number   1
_chemical_formula_structural   ScTa15C16
_chemical_formula_sum   'Sc1 Ta15 C16'
_cell_volume   360.44757509
_cell_formula_units_Z   1
loop_
 _symmetry_equiv_pos_site_id
 _symmetry_equiv_pos_as_xyz
  1  'x, y, z'
loop_
 _atom_site_type_symbol
 _atom_site_label
 _atom_site_symmetry_multiplicity
 _atom_site_fract_x
 _atom_site_fract_y
 _atom_site_fract_z
 _atom_site_occupancy
  Ta  Ta0  1  0.99904465  0.99904465  0.00000000  1
  Ta  Ta1  1  0.99980722  0.25000000  0.50000000  1
  Ta  Ta2  1  0.25000000  0.99980722  0.50000000  1
  Ta  Ta3  1  0.25000000  0.25000000  0.00000000  1
  Ta  Ta4  1  0.99904465  0.50095535  0.00000000  1
  Ta  Ta5  1  0.99910255  0.75000000  0.50000000  1
  Ta  Ta6  1  0.25000000  0.50019278  0.50000000  1
  Ta  Ta7  1  0.25000000  0.75000000  0.00000000  1
  Ta  Ta8  1  0.50095535  0.99904465  0.00000000  1
  Ta  Ta9  1  0.50019278  0.25000000  0.50000000  1
  Ta  Ta10  1  0.75000000  0.99910255  0.50000000  1
  Ta  Ta11  1  0.75000000  0.25000000  0.00000000  1
  Ta  Ta12  1  0.50095535  0.50095535  0.00000000  1
  Ta  Ta13  1  0.50089745  0.75000000  0.50000000  1
  Ta  Ta14  1  0.75000000  0.50089745  0.50000000  1
  Sc  Sc15  1  0.75000000  0.75000000  0.00000000  1
  C  C16  1  0.99961829  0.25000000  0.00000000  1
  C  C17  1  0.00069891  0.00069891  0.50000000  1
  C  C18  1  0.25000000  0.25000000  0.50000000  1
  C  C19  1  0.25000000  0.99961829  0.00000000  1
  C  C20  1  0.00204535  0.75000000  0.00000000  1
  C  C21  1  0.00069891  0.49930109  0.50000000  1
  C  C22  1  0.25000000  0.75000000  0.50000000  1
  C  C23  1  0.25000000  0.50038171  0.00000000  1
  C  C24  1  0.50038171  0.25000000  0.00000000  1
  C  C25  1  0.49930109  0.00069891  0.50000000  1
  C  C26  1  0.75000000  0.25000000  0.50000000  1
  C  C27  1  0.75000000  0.00204535  0.00000000  1
  C  C28  1  0.49795465  0.75000000  0.00000000  1
  C  C29  1  0.49930109  0.49930109  0.50000000  1
  C  C30  1  0.75000000  0.75000000  0.50000000  1
  C  C31  1  0.75000000  0.49795465  0.00000000  1
