# generated using pymatgen
data_ScTa3C4
_symmetry_space_group_name_H-M   'P 1'
_cell_length_a   9.01534877
_cell_length_b   8.99620702
_cell_length_c   4.49552747
_cell_angle_alpha   90.00000000
_cell_angle_beta   90.00000000
_cell_angle_gamma   90.03249856
_symmetry_Int_Tables_number   1
_chemical_formula_structural   ScTa3C4
_chemical_formula_sum   'Sc4 Ta12 C16'
_cell_volume   364.60494893
_cell_formula_units_Z   4
loop_
 _symmetry_equiv_pos_site_id
 _symmetry_equiv_pos_as_xyz
  1  'x, y, z'
loop_
 _atom_site_type_symbol
 _atom_site_label
 _atom_site_symmetry_multiplicity
 _atom_site_fract_x
 _atom_site_fract_y
 _atom_site_fract_z
 _atom_site_occupancy
  Ta  Ta0  1  0.99956003  0.00263912  0.00000000  1
  Ta  Ta1  1  0.24735564  0.00055913  0.50000000  1
  Ta  Ta2  1  0.99719110  0.74847159  0.50000000  1
  Ta  Ta3  1  0.75060679  0.00129674  0.50000000  1
  Ta  Ta4  1  0.50217658  0.00111056  0.00000000  1
  Ta  Ta5  1  0.24829413  0.25146570  0.00000000  1
  Ta  Ta6  1  0.50114537  0.49894385  0.00000000  1
  Ta  Ta7  1  0.75013476  0.49913971  0.50000000  1
  Ta  Ta8  1  0.50214630  0.74791259  0.50000000  1
  Ta  Ta9  1  0.50197093  0.25141096  0.50000000  1
  Ta  Ta10  1  0.99946493  0.49908960  0.00000000  1
  Ta  Ta11  1  0.24937966  0.74680546  0.00000000  1
  Sc  Sc12  1  0.99866630  0.25130089  0.50000000  1
  Sc  Sc13  1  0.75137068  0.25035415  0.00000000  1
  Sc  Sc14  1  0.24903411  0.49939304  0.50000000  1
  Sc  Sc15  1  0.75055501  0.74984930  0.00000000  1
  C  C16  1  0.00619333  0.24913917  0.00000000  1
  C  C17  1  0.00176216  0.99791521  0.50000000  1
  C  C18  1  0.25454409  0.24578844  0.50000000  1
  C  C19  1  0.25075657  0.99919723  0.00000000  1
  C  C20  1  0.00240023  0.75070838  0.00000000  1
  C  C21  1  0.99733806  0.50406597  0.50000000  1
  C  C22  1  0.24997052  0.75235708  0.50000000  1
  C  C23  1  0.25046940  0.50106568  0.00000000  1
  C  C24  1  0.49801115  0.24902057  0.00000000  1
  C  C25  1  0.49847013  0.99982571  0.50000000  1
  C  C26  1  0.74376611  0.24968212  0.50000000  1
  C  C27  1  0.74883546  0.00014283  0.00000000  1
  C  C28  1  0.49793228  0.75062534  0.00000000  1
  C  C29  1  0.50183105  0.50037568  0.50000000  1
  C  C30  1  0.74970856  0.74987309  0.50000000  1
  C  C31  1  0.74895859  0.50047514  0.00000000  1
