# generated using pymatgen
data_ScTa7C8
_symmetry_space_group_name_H-M   'P 1'
_cell_length_a   8.97497321
_cell_length_b   8.97497321
_cell_length_c   4.49079831
_cell_angle_alpha   90.00000000
_cell_angle_beta   90.00000000
_cell_angle_gamma   90.08535089
_symmetry_Int_Tables_number   1
_chemical_formula_structural   ScTa7C8
_chemical_formula_sum   'Sc2 Ta14 C16'
_cell_volume   361.73404965
_cell_formula_units_Z   2
loop_
 _symmetry_equiv_pos_site_id
 _symmetry_equiv_pos_as_xyz
  1  'x, y, z'
loop_
 _atom_site_type_symbol
 _atom_site_label
 _atom_site_symmetry_multiplicity
 _atom_site_fract_x
 _atom_site_fract_y
 _atom_site_fract_z
 _atom_site_occupancy
  Ta  Ta0  1  0.00113056  0.99925541  0.00000000  1
  Ta  Ta1  1  0.24915696  0.99774288  0.50000000  1
  Ta  Ta2  1  0.00122904  0.74877096  0.50000000  1
  Ta  Ta3  1  0.24877096  0.50122904  0.50000000  1
  Ta  Ta4  1  0.49913721  0.99913721  0.00000000  1
  Ta  Ta5  1  0.75054897  0.99945103  0.50000000  1
  Ta  Ta6  1  0.75086279  0.25086279  0.00000000  1
  Ta  Ta7  1  0.49925541  0.50113056  0.00000000  1
  Ta  Ta8  1  0.75225712  0.50084304  0.50000000  1
  Ta  Ta9  1  0.75074459  0.74886944  0.00000000  1
  Ta  Ta10  1  0.49774288  0.74915696  0.50000000  1
  Ta  Ta11  1  0.24886944  0.25074459  0.00000000  1
  Ta  Ta12  1  0.00084304  0.25225712  0.50000000  1
  Ta  Ta13  1  0.49945103  0.25054897  0.50000000  1
  Sc  Sc14  1  0.00092062  0.50092062  0.00000000  1
  Sc  Sc15  1  0.24907938  0.74907938  0.00000000  1
  C  C16  1  0.00037692  0.24780484  0.00000000  1
  C  C17  1  0.99945578  0.00067238  0.50000000  1
  C  C18  1  0.25054422  0.24932762  0.50000000  1
  C  C19  1  0.24962308  0.00219516  0.00000000  1
  C  C20  1  0.99690506  0.75309494  0.00000000  1
  C  C21  1  0.99978802  0.49978802  0.50000000  1
  C  C22  1  0.25021198  0.75021198  0.50000000  1
  C  C23  1  0.25309494  0.49690506  0.00000000  1
  C  C24  1  0.49968803  0.25031197  0.00000000  1
  C  C25  1  0.50073923  0.00073923  0.50000000  1
  C  C26  1  0.74926077  0.24926077  0.50000000  1
  C  C27  1  0.75031197  0.99968803  0.00000000  1
  C  C28  1  0.50219516  0.74962308  0.00000000  1
  C  C29  1  0.50067238  0.49945578  0.50000000  1
  C  C30  1  0.74932762  0.75054422  0.50000000  1
  C  C31  1  0.74780484  0.50037692  0.00000000  1
