# generated using pymatgen
data_Sc3Ta5C8
_symmetry_space_group_name_H-M   'P 1'
_cell_length_a   9.04554595
_cell_length_b   9.05290930
_cell_length_c   4.51870190
_cell_angle_alpha   90.00000000
_cell_angle_beta   90.00000000
_cell_angle_gamma   89.94452082
_symmetry_Int_Tables_number   1
_chemical_formula_structural   Sc3Ta5C8
_chemical_formula_sum   'Sc6 Ta10 C16'
_cell_volume   370.02957911
_cell_formula_units_Z   2
loop_
 _symmetry_equiv_pos_site_id
 _symmetry_equiv_pos_as_xyz
  1  'x, y, z'
loop_
 _atom_site_type_symbol
 _atom_site_label
 _atom_site_symmetry_multiplicity
 _atom_site_fract_x
 _atom_site_fract_y
 _atom_site_fract_z
 _atom_site_occupancy
  Ta  Ta0  1  0.00260185  0.99881322  0.00000000  1
  Ta  Ta1  1  0.74411198  0.99918535  0.50000000  1
  Ta  Ta2  1  0.74773326  0.50143170  0.50000000  1
  Ta  Ta3  1  0.00154380  0.50152409  0.00000000  1
  Ta  Ta4  1  0.25150439  0.75093675  0.00000000  1
  Ta  Ta5  1  0.00341039  0.24918163  0.50000000  1
  Ta  Ta6  1  0.74614576  0.24949968  0.00000000  1
  Ta  Ta7  1  0.25183759  0.49970699  0.50000000  1
  Ta  Ta8  1  0.74781534  0.75004878  0.00000000  1
  Ta  Ta9  1  0.49912372  0.49872880  0.00000000  1
  Sc  Sc10  1  0.00005434  0.75052087  0.50000000  1
  Sc  Sc11  1  0.49937491  0.75111692  0.50000000  1
  Sc  Sc12  1  0.25098921  0.24946455  0.00000000  1
  Sc  Sc13  1  0.49989048  0.99941841  0.00000000  1
  Sc  Sc14  1  0.25121459  0.99902764  0.50000000  1
  Sc  Sc15  1  0.49963883  0.24930211  0.50000000  1
  C  C16  1  0.99634597  0.25066070  0.00000000  1
  C  C17  1  0.99565242  0.00480041  0.50000000  1
  C  C18  1  0.24120616  0.25771932  0.50000000  1
  C  C19  1  0.24270054  0.99239165  0.00000000  1
  C  C20  1  0.99871385  0.74880919  0.00000000  1
  C  C21  1  0.99819456  0.49798058  0.50000000  1
  C  C22  1  0.25032215  0.74354550  0.50000000  1
  C  C23  1  0.24917702  0.50242506  0.00000000  1
  C  C24  1  0.50895688  0.25791933  0.00000000  1
  C  C25  1  0.51069434  0.00147997  0.50000000  1
  C  C26  1  0.75413226  0.25169468  0.50000000  1
  C  C27  1  0.75346132  0.00036358  0.00000000  1
  C  C28  1  0.50052169  0.74354090  0.00000000  1
  C  C29  1  0.50166782  0.50072633  0.50000000  1
  C  C30  1  0.75001778  0.74831635  0.50000000  1
  C  C31  1  0.75124479  0.49971896  0.00000000  1
