# generated using pymatgen
data_Zr5Ti3C8
_symmetry_space_group_name_H-M   'P 1'
_cell_length_a   9.16553243
_cell_length_b   9.17382949
_cell_length_c   4.59730609
_cell_angle_alpha   90.00000000
_cell_angle_beta   90.00000000
_cell_angle_gamma   90.00000000
_symmetry_Int_Tables_number   1
_chemical_formula_structural   Zr5Ti3C8
_chemical_formula_sum   'Zr10 Ti6 C16'
_cell_volume   386.55543369
_cell_formula_units_Z   2
loop_
 _symmetry_equiv_pos_site_id
 _symmetry_equiv_pos_as_xyz
  1  'x, y, z'
loop_
 _atom_site_type_symbol
 _atom_site_label
 _atom_site_symmetry_multiplicity
 _atom_site_fract_x
 _atom_site_fract_y
 _atom_site_fract_z
 _atom_site_occupancy
  Zr  Zr0  1  0.75410687  0.75331967  0.00000000  1
  Zr  Zr1  1  0.00342812  0.50000000  0.00000000  1
  Zr  Zr2  1  0.24664975  0.50000000  0.50000000  1
  Zr  Zr3  1  0.49623548  0.24662261  0.50000000  1
  Zr  Zr4  1  0.75379141  0.00000000  0.50000000  1
  Zr  Zr5  1  0.49672062  0.50000000  0.00000000  1
  Zr  Zr6  1  0.75337085  0.50000000  0.50000000  1
  Zr  Zr7  1  0.24639257  0.00000000  0.50000000  1
  Zr  Zr8  1  0.75410687  0.24668033  0.00000000  1
  Zr  Zr9  1  0.49623548  0.75337739  0.50000000  1
  Ti  Ti10  1  0.00400873  0.75456538  0.50000000  1
  Ti  Ti11  1  0.24553357  0.24512730  0.00000000  1
  Ti  Ti12  1  0.24553357  0.75487270  0.00000000  1
  Ti  Ti13  1  0.00444996  0.00000000  0.00000000  1
  Ti  Ti14  1  0.00400873  0.24543462  0.50000000  1
  Ti  Ti15  1  0.49491473  0.00000000  0.00000000  1
  C  C16  1  0.00168179  0.00000000  0.50000000  1
  C  C17  1  0.00797171  0.24233997  0.00000000  1
  C  C18  1  0.24765601  0.00000000  0.00000000  1
  C  C19  1  0.24190039  0.24805732  0.50000000  1
  C  C20  1  0.00141669  0.50000000  0.50000000  1
  C  C21  1  0.00797171  0.75766003  0.00000000  1
  C  C22  1  0.24853948  0.50000000  0.00000000  1
  C  C23  1  0.24190039  0.75194268  0.50000000  1
  C  C24  1  0.49790286  0.00000000  0.50000000  1
  C  C25  1  0.49264565  0.24220851  0.00000000  1
  C  C26  1  0.75334614  0.00000000  0.00000000  1
  C  C27  1  0.75749393  0.24832200  0.50000000  1
  C  C28  1  0.49807228  0.50000000  0.50000000  1
  C  C29  1  0.49264565  0.75779149  0.00000000  1
  C  C30  1  0.75187405  0.50000000  0.00000000  1
  C  C31  1  0.75749393  0.75167800  0.50000000  1
