# generated using pymatgen
data_Zr11Ti5C16
_symmetry_space_group_name_H-M   'P 1'
_cell_length_a   9.21362564
_cell_length_b   9.21216754
_cell_length_c   4.61745294
_cell_angle_alpha   90.00000000
_cell_angle_beta   90.00000000
_cell_angle_gamma   89.96155437
_symmetry_Int_Tables_number   1
_chemical_formula_structural   Zr11Ti5C16
_chemical_formula_sum   'Zr11 Ti5 C16'
_cell_volume   391.91760322
_cell_formula_units_Z   1
loop_
 _symmetry_equiv_pos_site_id
 _symmetry_equiv_pos_as_xyz
  1  'x, y, z'
loop_
 _atom_site_type_symbol
 _atom_site_label
 _atom_site_symmetry_multiplicity
 _atom_site_fract_x
 _atom_site_fract_y
 _atom_site_fract_z
 _atom_site_occupancy
  Zr  Zr0  1  0.00347659  0.24683181  0.50000000  1
  Zr  Zr1  1  0.75223521  0.75173393  0.00000000  1
  Zr  Zr2  1  0.00337177  0.50407774  0.00000000  1
  Zr  Zr3  1  0.24942964  0.50375108  0.50000000  1
  Zr  Zr4  1  0.49653638  0.24938097  0.50000000  1
  Zr  Zr5  1  0.75276755  0.99663299  0.50000000  1
  Zr  Zr6  1  0.49674709  0.50382034  0.00000000  1
  Zr  Zr7  1  0.75073263  0.50331240  0.50000000  1
  Zr  Zr8  1  0.24714934  0.99624376  0.50000000  1
  Zr  Zr9  1  0.75195630  0.24838852  0.00000000  1
  Zr  Zr10  1  0.49603168  0.99648302  0.00000000  1
  Ti  Ti11  1  0.49545402  0.75090781  0.50000000  1
  Ti  Ti12  1  0.00401169  0.99545098  0.00000000  1
  Ti  Ti13  1  0.00464828  0.75303869  0.50000000  1
  Ti  Ti14  1  0.24788293  0.24781742  0.00000000  1
  Ti  Ti15  1  0.24768127  0.75242638  0.00000000  1
  C  C16  1  0.00165537  0.99204090  0.50000000  1
  C  C17  1  0.00791566  0.24395085  0.00000000  1
  C  C18  1  0.24301957  0.99710310  0.00000000  1
  C  C19  1  0.24922456  0.24898412  0.50000000  1
  C  C20  1  0.00170261  0.50749962  0.50000000  1
  C  C21  1  0.00762851  0.75696789  0.00000000  1
  C  C22  1  0.24927364  0.50276152  0.00000000  1
  C  C23  1  0.24859135  0.75086292  0.50000000  1
  C  C24  1  0.49799461  0.99216013  0.50000000  1
  C  C25  1  0.49255761  0.24906379  0.00000000  1
  C  C26  1  0.75627565  0.99838739  0.00000000  1
  C  C27  1  0.75098348  0.24909393  0.50000000  1
  C  C28  1  0.49824090  0.50769252  0.50000000  1
  C  C29  1  0.49259427  0.75065367  0.00000000  1
  C  C30  1  0.75078283  0.50170868  0.00000000  1
  C  C31  1  0.75144701  0.75077118  0.50000000  1
