# generated using pymatgen
data_Zr9Ti7C16
_symmetry_space_group_name_H-M   'P 1'
_cell_length_a   9.12384183
_cell_length_b   9.11204250
_cell_length_c   4.57426287
_cell_angle_alpha   90.00000000
_cell_angle_beta   90.00000000
_cell_angle_gamma   90.00000000
_symmetry_Int_Tables_number   1
_chemical_formula_structural   Zr9Ti7C16
_chemical_formula_sum   'Zr9 Ti7 C16'
_cell_volume   380.28973527
_cell_formula_units_Z   1
loop_
 _symmetry_equiv_pos_site_id
 _symmetry_equiv_pos_as_xyz
  1  'x, y, z'
loop_
 _atom_site_type_symbol
 _atom_site_label
 _atom_site_symmetry_multiplicity
 _atom_site_fract_x
 _atom_site_fract_y
 _atom_site_fract_z
 _atom_site_occupancy
  Zr  Zr0  1  0.75000000  0.75055920  0.00000000  1
  Zr  Zr1  1  0.00064608  0.50406713  0.00000000  1
  Zr  Zr2  1  0.25000000  0.50373228  0.50000000  1
  Zr  Zr3  1  0.49825108  0.24804270  0.50000000  1
  Zr  Zr4  1  0.75000000  0.99616875  0.50000000  1
  Zr  Zr5  1  0.49935392  0.50406713  0.00000000  1
  Zr  Zr6  1  0.00174892  0.24804270  0.50000000  1
  Zr  Zr7  1  0.25000000  0.99644239  0.50000000  1
  Zr  Zr8  1  0.75000000  0.24930085  0.00000000  1
  Ti  Ti9  1  0.25000000  0.75345413  0.00000000  1
  Ti  Ti10  1  0.00246497  0.75223609  0.50000000  1
  Ti  Ti11  1  0.25000000  0.24584019  0.00000000  1
  Ti  Ti12  1  0.00390307  0.99557677  0.00000000  1
  Ti  Ti13  1  0.49609693  0.99557677  0.00000000  1
  Ti  Ti14  1  0.75000000  0.50427260  0.50000000  1
  Ti  Ti15  1  0.49753503  0.75223609  0.50000000  1
  C  C16  1  0.00116313  0.99186776  0.50000000  1
  C  C17  1  0.00693368  0.24373037  0.00000000  1
  C  C18  1  0.25000000  0.99785663  0.00000000  1
  C  C19  1  0.25000000  0.24870911  0.50000000  1
  C  C20  1  0.99544593  0.50765323  0.50000000  1
  C  C21  1  0.00666256  0.75717292  0.00000000  1
  C  C22  1  0.25000000  0.50357977  0.00000000  1
  C  C23  1  0.25000000  0.75099874  0.50000000  1
  C  C24  1  0.49883687  0.99186776  0.50000000  1
  C  C25  1  0.49306632  0.24373037  0.00000000  1
  C  C26  1  0.75000000  0.99831115  0.00000000  1
  C  C27  1  0.75000000  0.25386208  0.50000000  1
  C  C28  1  0.50455407  0.50765323  0.50000000  1
  C  C29  1  0.49333744  0.75717292  0.00000000  1
  C  C30  1  0.75000000  0.50175768  0.00000000  1
  C  C31  1  0.75000000  0.74446049  0.50000000  1
