# generated using pymatgen
data_ZrTiC2
_symmetry_space_group_name_H-M   'P 1'
_cell_length_a   9.08753829
_cell_length_b   9.05962311
_cell_length_c   4.55057061
_cell_angle_alpha   90.00000000
_cell_angle_beta   90.00000000
_cell_angle_gamma   90.00000000
_symmetry_Int_Tables_number   1
_chemical_formula_structural   ZrTiC2
_chemical_formula_sum   'Zr8 Ti8 C16'
_cell_volume   374.64698530
_cell_formula_units_Z   8
loop_
 _symmetry_equiv_pos_site_id
 _symmetry_equiv_pos_as_xyz
  1  'x, y, z'
loop_
 _atom_site_type_symbol
 _atom_site_label
 _atom_site_symmetry_multiplicity
 _atom_site_fract_x
 _atom_site_fract_y
 _atom_site_fract_z
 _atom_site_occupancy
  Zr  Zr0  1  0.75000000  0.75075644  0.00000000  1
  Zr  Zr1  1  0.99900632  0.50193453  0.00000000  1
  Zr  Zr2  1  0.25000000  0.50300303  0.50000000  1
  Zr  Zr3  1  0.50107326  0.24822165  0.50000000  1
  Zr  Zr4  1  0.75000000  0.99927902  0.50000000  1
  Zr  Zr5  1  0.50099368  0.50193453  0.00000000  1
  Zr  Zr6  1  0.99892674  0.24822165  0.50000000  1
  Zr  Zr7  1  0.25000000  0.99711215  0.50000000  1
  Ti  Ti8  1  0.75000000  0.24919381  0.00000000  1
  Ti  Ti9  1  0.25000000  0.75375585  0.00000000  1
  Ti  Ti10  1  0.00145755  0.75206161  0.50000000  1
  Ti  Ti11  1  0.25000000  0.24636068  0.00000000  1
  Ti  Ti12  1  0.00167816  0.99773015  0.00000000  1
  Ti  Ti13  1  0.49832184  0.99773015  0.00000000  1
  Ti  Ti14  1  0.75000000  0.50105687  0.50000000  1
  Ti  Ti15  1  0.49854245  0.75206161  0.50000000  1
  C  C16  1  0.00027886  0.99284404  0.50000000  1
  C  C17  1  0.00008520  0.24325568  0.00000000  1
  C  C18  1  0.25000000  0.99872870  0.00000000  1
  C  C19  1  0.25000000  0.24886942  0.50000000  1
  C  C20  1  0.99439163  0.50672547  0.50000000  1
  C  C21  1  0.00592273  0.75701190  0.00000000  1
  C  C22  1  0.25000000  0.50146834  0.00000000  1
  C  C23  1  0.25000000  0.75095329  0.50000000  1
  C  C24  1  0.49972114  0.99284404  0.50000000  1
  C  C25  1  0.49991480  0.24325568  0.00000000  1
  C  C26  1  0.75000000  0.00498646  0.00000000  1
  C  C27  1  0.75000000  0.25496104  0.50000000  1
  C  C28  1  0.50560837  0.50672547  0.50000000  1
  C  C29  1  0.49407727  0.75701190  0.00000000  1
  C  C30  1  0.75000000  0.49490845  0.00000000  1
  C  C31  1  0.75000000  0.74503642  0.50000000  1
