# generated using pymatgen
data_Zr13Ti3C16
_symmetry_space_group_name_H-M   'P 1'
_cell_length_a   9.29527693
_cell_length_b   9.29527693
_cell_length_c   4.65622211
_cell_angle_alpha   90.00000000
_cell_angle_beta   90.00000000
_cell_angle_gamma   89.90971055
_symmetry_Int_Tables_number   1
_chemical_formula_structural   Zr13Ti3C16
_chemical_formula_sum   'Zr13 Ti3 C16'
_cell_volume   402.30720977
_cell_formula_units_Z   1
loop_
 _symmetry_equiv_pos_site_id
 _symmetry_equiv_pos_as_xyz
  1  'x, y, z'
loop_
 _atom_site_type_symbol
 _atom_site_label
 _atom_site_symmetry_multiplicity
 _atom_site_fract_x
 _atom_site_fract_y
 _atom_site_fract_z
 _atom_site_occupancy
  Zr  Zr0  1  0.99825661  0.99904667  0.00000000  1
  Zr  Zr1  1  0.99738080  0.24941518  0.50000000  1
  Zr  Zr2  1  0.75095333  0.75174339  0.00000000  1
  Zr  Zr3  1  0.25133435  0.24830399  0.00000000  1
  Zr  Zr4  1  0.99854075  0.50108603  0.00000000  1
  Zr  Zr5  1  0.24897268  0.50102732  0.50000000  1
  Zr  Zr6  1  0.50058482  0.75261920  0.50000000  1
  Zr  Zr7  1  0.50274220  0.24725780  0.50000000  1
  Zr  Zr8  1  0.74882281  0.00117719  0.50000000  1
  Zr  Zr9  1  0.50169601  0.49866565  0.00000000  1
  Zr  Zr10  1  0.75089407  0.49905328  0.50000000  1
  Zr  Zr11  1  0.24891397  0.75145925  0.00000000  1
  Zr  Zr12  1  0.25094672  0.99910593  0.50000000  1
  Ti  Ti13  1  0.74887355  0.24799527  0.00000000  1
  Ti  Ti14  1  0.50200473  0.00112645  0.00000000  1
  Ti  Ti15  1  0.99916141  0.75083859  0.50000000  1
  C  C16  1  0.99910855  0.99468974  0.50000000  1
  C  C17  1  0.99385767  0.24925156  0.00000000  1
  C  C18  1  0.25493511  0.99992174  0.00000000  1
  C  C19  1  0.25021186  0.24914166  0.50000000  1
  C  C20  1  0.99922189  0.50516453  0.50000000  1
  C  C21  1  0.99939343  0.75060657  0.00000000  1
  C  C22  1  0.24985239  0.50014761  0.00000000  1
  C  C23  1  0.24483547  0.75077811  0.50000000  1
  C  C24  1  0.50079421  0.00018630  0.50000000  1
  C  C25  1  0.50639834  0.24360166  0.00000000  1
  C  C26  1  0.74450331  0.00549669  0.00000000  1
  C  C27  1  0.74981370  0.24920579  0.50000000  1
  C  C28  1  0.50085834  0.49978814  0.50000000  1
  C  C29  1  0.50074844  0.75614233  0.00000000  1
  C  C30  1  0.75007826  0.49506489  0.00000000  1
  C  C31  1  0.75531026  0.75089145  0.50000000  1
