# generated using pymatgen
data_Zr7TiC8
_symmetry_space_group_name_H-M   'P 1'
_cell_length_a   9.34420801
_cell_length_b   9.33516705
_cell_length_c   4.67621726
_cell_angle_alpha   90.00000000
_cell_angle_beta   90.00000000
_cell_angle_gamma   90.00000000
_symmetry_Int_Tables_number   1
_chemical_formula_structural   Zr7TiC8
_chemical_formula_sum   'Zr14 Ti2 C16'
_cell_volume   407.90522851
_cell_formula_units_Z   2
loop_
 _symmetry_equiv_pos_site_id
 _symmetry_equiv_pos_as_xyz
  1  'x, y, z'
loop_
 _atom_site_type_symbol
 _atom_site_label
 _atom_site_symmetry_multiplicity
 _atom_site_fract_x
 _atom_site_fract_y
 _atom_site_fract_z
 _atom_site_occupancy
  Zr  Zr0  1  0.00187267  0.99541423  0.00000000  1
  Zr  Zr1  1  0.00059872  0.25000000  0.50000000  1
  Zr  Zr2  1  0.24812733  0.99541423  0.50000000  1
  Zr  Zr3  1  0.24940128  0.25000000  0.00000000  1
  Zr  Zr4  1  0.00187267  0.50458577  0.00000000  1
  Zr  Zr5  1  0.24812733  0.50458577  0.50000000  1
  Zr  Zr6  1  0.49839859  0.99765088  0.00000000  1
  Zr  Zr7  1  0.49931187  0.25000000  0.50000000  1
  Zr  Zr8  1  0.75160141  0.99765088  0.50000000  1
  Zr  Zr9  1  0.75068813  0.25000000  0.00000000  1
  Zr  Zr10  1  0.49839859  0.50234912  0.00000000  1
  Zr  Zr11  1  0.49685320  0.75000000  0.50000000  1
  Zr  Zr12  1  0.75160141  0.50234912  0.50000000  1
  Zr  Zr13  1  0.75314680  0.75000000  0.00000000  1
  Ti  Ti14  1  0.00330099  0.75000000  0.50000000  1
  Ti  Ti15  1  0.24669901  0.75000000  0.00000000  1
  C  C16  1  0.00092867  0.99256391  0.50000000  1
  C  C17  1  0.00071350  0.25000000  0.00000000  1
  C  C18  1  0.24907133  0.99256391  0.00000000  1
  C  C19  1  0.24928650  0.25000000  0.50000000  1
  C  C20  1  0.00092867  0.50743609  0.50000000  1
  C  C21  1  0.00671037  0.75000000  0.00000000  1
  C  C22  1  0.24907133  0.50743609  0.00000000  1
  C  C23  1  0.24328963  0.75000000  0.50000000  1
  C  C24  1  0.49906548  0.99837767  0.50000000  1
  C  C25  1  0.49919215  0.25000000  0.00000000  1
  C  C26  1  0.75093452  0.99837767  0.00000000  1
  C  C27  1  0.75080785  0.25000000  0.50000000  1
  C  C28  1  0.49906548  0.50162233  0.50000000  1
  C  C29  1  0.49417042  0.75000000  0.00000000  1
  C  C30  1  0.75093452  0.50162233  0.00000000  1
  C  C31  1  0.75582958  0.75000000  0.50000000  1
