# generated using pymatgen
data_AlMoN2
_symmetry_space_group_name_H-M   'P 1'
_cell_length_a   9.04874722
_cell_length_b   9.06136957
_cell_length_c   4.57279007
_cell_angle_alpha   90.47487125
_cell_angle_beta   89.45249816
_cell_angle_gamma   89.79274967
_symmetry_Int_Tables_number   1
_chemical_formula_structural   AlMoN2
_chemical_formula_sum   'Al8 Mo8 N16'
_cell_volume   374.90898748
_cell_formula_units_Z   8
loop_
 _symmetry_equiv_pos_site_id
 _symmetry_equiv_pos_as_xyz
  1  'x, y, z'
loop_
 _atom_site_type_symbol
 _atom_site_label
 _atom_site_symmetry_multiplicity
 _atom_site_fract_x
 _atom_site_fract_y
 _atom_site_fract_z
 _atom_site_occupancy
  Mo  Mo0  1  0.97751573  0.97621224  0.93613771  1
  Mo  Mo1  1  0.27171139  0.23041841  0.03524317  1
  Mo  Mo2  1  0.98422415  0.76735324  0.55049294  1
  Mo  Mo3  1  0.48279133  0.02324084  0.03705547  1
  Mo  Mo4  1  0.75751581  0.97322955  0.53388682  1
  Mo  Mo5  1  0.53046537  0.52661206  0.94234247  1
  Mo  Mo6  1  0.72823371  0.52785921  0.55164282  1
  Mo  Mo7  1  0.74013888  0.76654250  0.93979840  1
  Al  Al8  1  0.99975952  0.25756889  0.50030462  1
  Al  Al9  1  0.25143219  0.99730720  0.47594612  1
  Al  Al10  1  0.01451828  0.48654580  0.02657231  1
  Al  Al11  1  0.24466152  0.49680001  0.50417049  1
  Al  Al12  1  0.24717276  0.74008441  0.01322208  1
  Al  Al13  1  0.50799743  0.25188664  0.48331196  1
  Al  Al14  1  0.76087394  0.25520683  0.01984463  1
  Al  Al15  1  0.48434569  0.74855651  0.50027803  1
  N  N16  1  0.12166713  0.12465991  0.26264919  1
  N  N17  1  0.13294252  0.36584034  0.74854467  1
  N  N18  1  0.37890241  0.12516544  0.69767152  1
  N  N19  1  0.37803933  0.37638583  0.26363254  1
  N  N20  1  0.13219789  0.61648025  0.25175143  1
  N  N21  1  0.15453795  0.87488459  0.75173417  1
  N  N22  1  0.36147158  0.62473831  0.73876878  1
  N  N23  1  0.36558638  0.86408256  0.24770643  1
  N  N24  1  0.63485540  0.13541219  0.24644561  1
  N  N25  1  0.62869995  0.35245881  0.75378770  1
  N  N26  1  0.87194474  0.14380969  0.73956377  1
  N  N27  1  0.88138979  0.37455961  0.25435087  1
  N  N28  1  0.61482596  0.63795753  0.25589413  1
  N  N29  1  0.57732665  0.89016401  0.72989001  1
  N  N30  1  0.90104423  0.60375868  0.77280345  1
  N  N31  1  0.88121041  0.86421793  0.23455570  1
