# generated using pymatgen
data_TaAlN2
_symmetry_space_group_name_H-M   'P 1'
_cell_length_a   9.28842120
_cell_length_b   8.96257514
_cell_length_c   4.66520500
_cell_angle_alpha   90.73105606
_cell_angle_beta   90.03190897
_cell_angle_gamma   89.70397629
_symmetry_Int_Tables_number   1
_chemical_formula_structural   TaAlN2
_chemical_formula_sum   'Ta8 Al8 N16'
_cell_volume   388.33294952
_cell_formula_units_Z   8
loop_
 _symmetry_equiv_pos_site_id
 _symmetry_equiv_pos_as_xyz
  1  'x, y, z'
loop_
 _atom_site_type_symbol
 _atom_site_label
 _atom_site_symmetry_multiplicity
 _atom_site_fract_x
 _atom_site_fract_y
 _atom_site_fract_z
 _atom_site_occupancy
  Ta  Ta0  1  0.97488716  0.99600288  0.02977894  1
  Ta  Ta1  1  0.00668882  0.25247094  0.43940251  1
  Ta  Ta2  1  0.24223266  0.48982520  0.46619950  1
  Ta  Ta3  1  0.53117618  0.23860404  0.54306039  1
  Ta  Ta4  1  0.76465387  0.02598489  0.54056611  1
  Ta  Ta5  1  0.74152133  0.23416211  0.04893343  1
  Ta  Ta6  1  0.72859107  0.48955310  0.46876707  1
  Ta  Ta7  1  0.75799074  0.76418074  0.94753697  1
  Al  Al8  1  0.25502377  0.99154641  0.50074572  1
  Al  Al9  1  0.25250670  0.24562231  0.00124888  1
  Al  Al10  1  0.01315583  0.50629204  0.99167438  1
  Al  Al11  1  0.00475004  0.75339966  0.52471622  1
  Al  Al12  1  0.24962017  0.75604982  0.99252933  1
  Al  Al13  1  0.48276482  0.98900305  0.98565809  1
  Al  Al14  1  0.49312784  0.51191295  0.00612158  1
  Al  Al15  1  0.48578712  0.75028625  0.49199335  1
  N  N16  1  0.15005001  0.11327654  0.24460752  1
  N  N17  1  0.13500638  0.37551127  0.76863178  1
  N  N18  1  0.36472792  0.11973544  0.75310893  1
  N  N19  1  0.37727900  0.37540182  0.22854298  1
  N  N20  1  0.12783415  0.63706352  0.23836199  1
  N  N21  1  0.13482724  0.87269823  0.74341238  1
  N  N22  1  0.36705982  0.62452897  0.75046908  1
  N  N23  1  0.36800045  0.86779002  0.24509320  1
  N  N24  1  0.59337623  0.09556179  0.24190787  1
  N  N25  1  0.62476855  0.39762380  0.80178694  1
  N  N26  1  0.91571842  0.15474136  0.77104104  1
  N  N27  1  0.88864149  0.40529653  0.22269421  1
  N  N28  1  0.61103643  0.63618776  0.24637594  1
  N  N29  1  0.59572436  0.86661212  0.73933545  1
  N  N30  1  0.89174573  0.61842402  0.74096663  1
  N  N31  1  0.86972572  0.84465042  0.28473156  1
