# generated using pymatgen
data_TiCrCN
_symmetry_space_group_name_H-M   'P 1'
_cell_length_a   8.38528233
_cell_length_b   8.37801850
_cell_length_c   4.17488114
_cell_angle_alpha   90.00000000
_cell_angle_beta   90.00000000
_cell_angle_gamma   90.17581251
_symmetry_Int_Tables_number   1
_chemical_formula_structural   TiCrCN
_chemical_formula_sum   'Ti8 Cr8 C8 N8'
_cell_volume   293.29257993
_cell_formula_units_Z   8
loop_
 _symmetry_equiv_pos_site_id
 _symmetry_equiv_pos_as_xyz
  1  'x, y, z'
loop_
 _atom_site_type_symbol
 _atom_site_label
 _atom_site_symmetry_multiplicity
 _atom_site_fract_x
 _atom_site_fract_y
 _atom_site_fract_z
 _atom_site_occupancy
  Cr  Cr0  1  0.01221330  0.99964182  0.00000000  1
  Cr  Cr1  1  0.23129014  0.98273603  0.50000000  1
  Cr  Cr2  1  0.00394757  0.76016523  0.50000000  1
  Cr  Cr3  1  0.23828428  0.52676955  0.50000000  1
  Cr  Cr4  1  0.52294504  0.01595454  0.00000000  1
  Cr  Cr5  1  0.51537352  0.23253232  0.50000000  1
  Cr  Cr6  1  0.73692444  0.00830748  0.50000000  1
  Cr  Cr7  1  0.74711118  0.25933674  0.00000000  1
  Ti  Ti8  1  0.99824860  0.23953400  0.50000000  1
  Ti  Ti9  1  0.25023533  0.24073168  0.00000000  1
  Ti  Ti10  1  0.00666219  0.49640198  0.00000000  1
  Ti  Ti11  1  0.24425301  0.75684546  0.00000000  1
  Ti  Ti12  1  0.49826386  0.49321815  0.00000000  1
  Ti  Ti13  1  0.50225472  0.76111039  0.50000000  1
  Ti  Ti14  1  0.75399210  0.49774287  0.50000000  1
  Ti  Ti15  1  0.75830610  0.74872991  0.00000000  1
  N  N16  1  0.24934887  0.24076784  0.50000000  1
  N  N17  1  0.25194134  0.99778097  0.00000000  1
  N  N18  1  0.25229650  0.49714897  0.00000000  1
  N  N19  1  0.00172508  0.74931273  0.00000000  1
  N  N20  1  0.75076794  0.00338942  0.00000000  1
  N  N21  1  0.74913041  0.75346606  0.50000000  1
  N  N22  1  0.50171952  0.75300382  0.00000000  1
  N  N23  1  0.49553795  0.50162742  0.50000000  1
  C  C24  1  0.99689045  0.24118761  0.00000000  1
  C  C25  1  0.98764093  0.99217233  0.50000000  1
  C  C26  1  0.24591616  0.75343666  0.50000000  1
  C  C27  1  0.00487528  0.50189260  0.50000000  1
  C  C28  1  0.74614798  0.24347078  0.50000000  1
  C  C29  1  0.50461167  0.24535902  0.00000000  1
  C  C30  1  0.49006427  0.00738802  0.50000000  1
  C  C31  1  0.75108030  0.49883758  0.00000000  1
