# generated using pymatgen
data_AlReN2
_symmetry_space_group_name_H-M   'P 1'
_cell_length_a   8.97665332
_cell_length_b   9.01788327
_cell_length_c   4.47707656
_cell_angle_alpha   89.56790064
_cell_angle_beta   89.37433897
_cell_angle_gamma   92.54966471
_symmetry_Int_Tables_number   1
_chemical_formula_structural   AlReN2
_chemical_formula_sum   'Al8 Re8 N16'
_cell_volume   362.02913154
_cell_formula_units_Z   8
loop_
 _symmetry_equiv_pos_site_id
 _symmetry_equiv_pos_as_xyz
  1  'x, y, z'
loop_
 _atom_site_type_symbol
 _atom_site_label
 _atom_site_symmetry_multiplicity
 _atom_site_fract_x
 _atom_site_fract_y
 _atom_site_fract_z
 _atom_site_occupancy
  Al  Al0  1  0.00019021  0.99654671  0.02854157  1
  Al  Al1  1  0.02383916  0.23195172  0.49910613  1
  Al  Al2  1  0.25839380  0.00313408  0.48975187  1
  Al  Al3  1  0.26843485  0.24160734  0.02031523  1
  Al  Al4  1  0.48359757  0.99331234  0.98371482  1
  Al  Al5  1  0.49494757  0.50808912  0.05692057  1
  Al  Al6  1  0.49767280  0.75424840  0.49530322  1
  Al  Al7  1  0.73820615  0.75956295  0.02667065  1
  N  N8  1  0.13650943  0.11616952  0.24821851  1
  N  N9  1  0.13225365  0.34654705  0.77324922  1
  N  N10  1  0.37834738  0.12544001  0.75142219  1
  N  N11  1  0.36956247  0.37649911  0.28027320  1
  N  N12  1  0.13781347  0.58348792  0.23340515  1
  N  N13  1  0.10727988  0.89893160  0.72778560  1
  N  N14  1  0.38706192  0.63456607  0.78276504  1
  N  N15  1  0.36979606  0.87023416  0.25654026  1
  N  N16  1  0.64208036  0.10004939  0.16625470  1
  N  N17  1  0.59877966  0.41663928  0.76259819  1
  N  N18  1  0.89198711  0.12608548  0.76102287  1
  N  N19  1  0.91419217  0.34626181  0.25193613  1
  N  N20  1  0.61715344  0.63598067  0.27036236  1
  N  N21  1  0.61424080  0.87654993  0.75376082  1
  N  N22  1  0.83554133  0.64862848  0.74574125  1
  N  N23  1  0.86005554  0.88574596  0.26347502  1
  Re  Re24  1  0.98199873  0.51277927  0.93773764  1
  Re  Re25  1  0.01094914  0.71558683  0.47517594  1
  Re  Re26  1  0.23283212  0.51317134  0.57588886  1
  Re  Re27  1  0.20300487  0.73796487  0.93702083  1
  Re  Re28  1  0.56426712  0.24420842  0.47787126  1
  Re  Re29  1  0.73089353  0.03471702  0.53885168  1
  Re  Re30  1  0.74700090  0.29035238  0.96198316  1
  Re  Re31  1  0.77111684  0.47495073  0.46633605  1
