# generated using pymatgen
data_TiCoCN
_symmetry_space_group_name_H-M   'P 1'
_cell_length_a   8.37581078
_cell_length_b   8.34935802
_cell_length_c   4.16140158
_cell_angle_alpha   90.00000000
_cell_angle_beta   90.00000000
_cell_angle_gamma   90.39073395
_symmetry_Int_Tables_number   1
_chemical_formula_structural   TiCoCN
_chemical_formula_sum   'Ti8 Co8 C8 N8'
_cell_volume   291.01104358
_cell_formula_units_Z   8
loop_
 _symmetry_equiv_pos_site_id
 _symmetry_equiv_pos_as_xyz
  1  'x, y, z'
loop_
 _atom_site_type_symbol
 _atom_site_label
 _atom_site_symmetry_multiplicity
 _atom_site_fract_x
 _atom_site_fract_y
 _atom_site_fract_z
 _atom_site_occupancy
  Co  Co0  1  0.98726855  0.01456646  0.00000000  1
  Co  Co1  1  0.99489713  0.25978136  0.50000000  1
  Co  Co2  1  0.24424407  0.98131404  0.50000000  1
  Co  Co3  1  0.49994835  0.01837399  0.00000000  1
  Co  Co4  1  0.53869432  0.21043302  0.50000000  1
  Co  Co5  1  0.79318438  0.00945337  0.50000000  1
  Co  Co6  1  0.73503397  0.26904115  0.00000000  1
  Co  Co7  1  0.49382408  0.77646513  0.50000000  1
  Ti  Ti8  1  0.23954836  0.22928283  0.00000000  1
  Ti  Ti9  1  0.99514472  0.49317772  0.00000000  1
  Ti  Ti10  1  0.00114912  0.75549648  0.50000000  1
  Ti  Ti11  1  0.25056666  0.48721058  0.50000000  1
  Ti  Ti12  1  0.26269510  0.76163020  0.00000000  1
  Ti  Ti13  1  0.49849092  0.48669948  0.00000000  1
  Ti  Ti14  1  0.74141049  0.49697393  0.50000000  1
  Ti  Ti15  1  0.73565887  0.77025495  0.00000000  1
  N  N16  1  0.24448870  0.24320635  0.50000000  1
  N  N17  1  0.24928327  0.99624330  0.00000000  1
  N  N18  1  0.24750388  0.49189127  0.00000000  1
  N  N19  1  0.99862698  0.75383423  0.00000000  1
  N  N20  1  0.75131502  0.01144119  0.00000000  1
  N  N21  1  0.74938625  0.75925577  0.50000000  1
  N  N22  1  0.49916543  0.74956146  0.00000000  1
  N  N23  1  0.49818441  0.49217716  0.50000000  1
  C  C24  1  0.98136139  0.23838211  0.00000000  1
  C  C25  1  0.01685338  0.02097796  0.50000000  1
  C  C26  1  0.25689288  0.75131877  0.50000000  1
  C  C27  1  0.99612813  0.50389813  0.50000000  1
  C  C28  1  0.75985322  0.23353062  0.50000000  1
  C  C29  1  0.50745417  0.23566874  0.00000000  1
  C  C30  1  0.48735637  0.99543338  0.50000000  1
  C  C31  1  0.74438746  0.50302489  0.00000000  1
