# generated using pymatgen
data_YAlN2
_symmetry_space_group_name_H-M   'P 1'
_cell_length_a   9.45714950
_cell_length_b   9.81190119
_cell_length_c   4.84107745
_cell_angle_alpha   90.18431651
_cell_angle_beta   90.00000000
_cell_angle_gamma   90.00000000
_symmetry_Int_Tables_number   1
_chemical_formula_structural   YAlN2
_chemical_formula_sum   'Y8 Al8 N16'
_cell_volume   449.21391849
_cell_formula_units_Z   8
loop_
 _symmetry_equiv_pos_site_id
 _symmetry_equiv_pos_as_xyz
  1  'x, y, z'
loop_
 _atom_site_type_symbol
 _atom_site_label
 _atom_site_symmetry_multiplicity
 _atom_site_fract_x
 _atom_site_fract_y
 _atom_site_fract_z
 _atom_site_occupancy
  Y  Y0  1  0.01672598  0.00000000  0.00000000  1
  Y  Y1  1  0.03119483  0.26056483  0.50476301  1
  Y  Y2  1  0.03119483  0.73943517  0.49523699  1
  Y  Y3  1  0.72234800  0.00000000  0.50000000  1
  Y  Y4  1  0.73683730  0.25163182  0.00645452  1
  Y  Y5  1  0.46387471  0.50000000  0.00000000  1
  Y  Y6  1  0.75215304  0.50000000  0.50000000  1
  Y  Y7  1  0.73683730  0.74836818  0.99354548  1
  Al  Al8  1  0.26848102  0.00000000  0.50000000  1
  Al  Al9  1  0.26454993  0.24511606  0.01678585  1
  Al  Al10  1  0.03263901  0.50000000  0.00000000  1
  Al  Al11  1  0.25871558  0.50000000  0.50000000  1
  Al  Al12  1  0.26454993  0.75488394  0.98321415  1
  Al  Al13  1  0.46974255  0.00000000  0.00000000  1
  Al  Al14  1  0.47374547  0.24143811  0.50454956  1
  Al  Al15  1  0.47374547  0.75856189  0.49545044  1
  N  N16  1  0.16495596  0.11982596  0.25456758  1
  N  N17  1  0.16572866  0.38901368  0.79020370  1
  N  N18  1  0.36695074  0.12503129  0.75590897  1
  N  N19  1  0.35423372  0.35808806  0.29346868  1
  N  N20  1  0.16572866  0.61098632  0.20979630  1
  N  N21  1  0.16495596  0.88017404  0.74543242  1
  N  N22  1  0.35423372  0.64191194  0.70653132  1
  N  N23  1  0.36695074  0.87496871  0.24409103  1
  N  N24  1  0.57474607  0.12352995  0.24179719  1
  N  N25  1  0.59704387  0.36172461  0.71614104  1
  N  N26  1  0.87514988  0.13050491  0.73654346  1
  N  N27  1  0.90252361  0.39045552  0.21635953  1
  N  N28  1  0.59704387  0.63827539  0.28385896  1
  N  N29  1  0.57474607  0.87647005  0.75820281  1
  N  N30  1  0.90252361  0.60954448  0.78364047  1
  N  N31  1  0.87514988  0.86949509  0.26345654  1
