# generated using pymatgen
data_AlWN2
_symmetry_space_group_name_H-M   'P 1'
_cell_length_a   8.73290697
_cell_length_b   9.23946277
_cell_length_c   4.65285226
_cell_angle_alpha   89.85885829
_cell_angle_beta   90.39771269
_cell_angle_gamma   93.26691471
_symmetry_Int_Tables_number   1
_chemical_formula_structural   AlWN2
_chemical_formula_sum   'Al8 W8 N16'
_cell_volume   374.80646381
_cell_formula_units_Z   8
loop_
 _symmetry_equiv_pos_site_id
 _symmetry_equiv_pos_as_xyz
  1  'x, y, z'
loop_
 _atom_site_type_symbol
 _atom_site_label
 _atom_site_symmetry_multiplicity
 _atom_site_fract_x
 _atom_site_fract_y
 _atom_site_fract_z
 _atom_site_occupancy
  Al  Al0  1  0.99806097  0.01256157  0.99261237  1
  Al  Al1  1  0.99728131  0.24072616  0.49619387  1
  Al  Al2  1  0.23906872  0.00418518  0.49573843  1
  Al  Al3  1  0.25674086  0.48566790  0.54716471  1
  Al  Al4  1  0.51250626  0.25763902  0.52418930  1
  Al  Al5  1  0.76770203  0.25674134  0.98245092  1
  Al  Al6  1  0.49570616  0.75538461  0.48741744  1
  Al  Al7  1  0.72922809  0.76376132  0.03645243  1
  W  W8  1  0.28158040  0.26213620  0.97226538  1
  W  W9  1  0.99586905  0.53554440  0.96475833  1
  W  W10  1  0.00537751  0.71488087  0.46383855  1
  W  W11  1  0.21202031  0.73277723  0.93513381  1
  W  W12  1  0.51124201  0.97986118  0.07599250  1
  W  W13  1  0.72208435  0.98396971  0.44596300  1
  W  W14  1  0.49105315  0.47157765  0.97195972  1
  W  W15  1  0.78640665  0.52271942  0.44067749  1
  N  N16  1  0.12818501  0.12983168  0.25682408  1
  N  N17  1  0.12286691  0.35637573  0.75786602  1
  N  N18  1  0.38428742  0.12023125  0.73504277  1
  N  N19  1  0.38240878  0.37212528  0.30908331  1
  N  N20  1  0.16277710  0.59226225  0.27551640  1
  N  N21  1  0.10923822  0.89662079  0.74863539  1
  N  N22  1  0.38788580  0.62615192  0.76185538  1
  N  N23  1  0.34797560  0.86678885  0.27937040  1
  N  N24  1  0.62613831  0.15718051  0.24813724  1
  N  N25  1  0.64992315  0.37745533  0.74794236  1
  N  N26  1  0.86800231  0.12508493  0.75024539  1
  N  N27  1  0.89365953  0.36207511  0.24481006  1
  N  N28  1  0.60959911  0.62173066  0.26646385  1
  N  N29  1  0.61270610  0.87496870  0.76043246  1
  N  N30  1  0.83420139  0.65404467  0.78241910  1
  N  N31  1  0.87821744  0.88693859  0.24254757  1
