# generated using pymatgen
data_AlCrCN
_symmetry_space_group_name_H-M   'P 1'
_cell_length_a   8.83581508
_cell_length_b   8.83909553
_cell_length_c   4.42748931
_cell_angle_alpha   90.00294246
_cell_angle_beta   89.76084000
_cell_angle_gamma   90.03117722
_symmetry_Int_Tables_number   1
_chemical_formula_structural   AlCrCN
_chemical_formula_sum   'Al8 Cr8 C8 N8'
_cell_volume   345.78656735
_cell_formula_units_Z   8
loop_
 _symmetry_equiv_pos_site_id
 _symmetry_equiv_pos_as_xyz
  1  'x, y, z'
loop_
 _atom_site_type_symbol
 _atom_site_label
 _atom_site_symmetry_multiplicity
 _atom_site_fract_x
 _atom_site_fract_y
 _atom_site_fract_z
 _atom_site_occupancy
  Cr  Cr0  1  0.00344173  0.00309565  0.00233927  1
  Cr  Cr1  1  0.00376780  0.24421160  0.51204754  1
  Cr  Cr2  1  0.24578051  0.00148585  0.50702062  1
  Cr  Cr3  1  0.25130722  0.24962643  0.99432755  1
  Cr  Cr4  1  0.24846672  0.75366913  0.99655380  1
  Cr  Cr5  1  0.49830038  0.00221531  0.99130426  1
  Cr  Cr6  1  0.49592333  0.25285957  0.49739469  1
  Cr  Cr7  1  0.75110461  0.24817106  0.00141960  1
  C  C8  1  0.12935503  0.12797228  0.24729218  1
  C  C9  1  0.37377497  0.12394650  0.74706610  1
  C  C10  1  0.36780967  0.63323189  0.76751117  1
  C  C11  1  0.36905636  0.88081204  0.23165270  1
  C  C12  1  0.61265690  0.13025028  0.23825416  1
  C  C13  1  0.62328882  0.36129246  0.75715122  1
  C  C14  1  0.87922809  0.35716978  0.25254620  1
  C  C15  1  0.88399195  0.88483144  0.23752287  1
  N  N16  1  0.12528981  0.37166966  0.74499431  1
  N  N17  1  0.37132854  0.37194949  0.25556732  1
  N  N18  1  0.12353609  0.62333240  0.24368812  1
  N  N19  1  0.12329839  0.87335772  0.75749277  1
  N  N20  1  0.87793574  0.12425774  0.75878100  1
  N  N21  1  0.63011171  0.62661399  0.25653470  1
  N  N22  1  0.62774948  0.87552883  0.75077900  1
  N  N23  1  0.87722563  0.62408186  0.74554953  1
  Al  Al24  1  0.99979712  0.49788013  0.99089155  1
  Al  Al25  1  0.00211626  0.74869233  0.49797404  1
  Al  Al26  1  0.24645792  0.49989031  0.49568208  1
  Al  Al27  1  0.74792113  0.00506482  0.50489127  1
  Al  Al28  1  0.50209556  0.50032306  0.02145803  1
  Al  Al29  1  0.50442718  0.75499679  0.49830662  1
  Al  Al30  1  0.75181284  0.49818796  0.50165244  1
  Al  Al31  1  0.75164249  0.74933164  0.99435321  1
