# generated using pymatgen
data_TiMnCN
_symmetry_space_group_name_H-M   'P 1'
_cell_length_a   8.36001360
_cell_length_b   8.39051481
_cell_length_c   4.14951669
_cell_angle_alpha   90.00000000
_cell_angle_beta   90.00000000
_cell_angle_gamma   89.83308596
_symmetry_Int_Tables_number   1
_chemical_formula_structural   TiMnCN
_chemical_formula_sum   'Ti8 Mn8 C8 N8'
_cell_volume   291.06585772
_cell_formula_units_Z   8
loop_
 _symmetry_equiv_pos_site_id
 _symmetry_equiv_pos_as_xyz
  1  'x, y, z'
loop_
 _atom_site_type_symbol
 _atom_site_label
 _atom_site_symmetry_multiplicity
 _atom_site_fract_x
 _atom_site_fract_y
 _atom_site_fract_z
 _atom_site_occupancy
  Ti  Ti0  1  0.00141849  0.00341388  0.00000000  1
  Ti  Ti1  1  0.25249061  0.25291193  0.00000000  1
  Ti  Ti2  1  0.00451798  0.49915239  0.00000000  1
  Ti  Ti3  1  0.99471531  0.75492150  0.50000000  1
  Ti  Ti4  1  0.49164682  0.99399315  0.00000000  1
  Ti  Ti5  1  0.74604760  0.24779737  0.00000000  1
  Ti  Ti6  1  0.49364310  0.50783303  0.00000000  1
  Ti  Ti7  1  0.74542359  0.74913510  0.00000000  1
  Mn  Mn8  1  0.98404616  0.24320692  0.50000000  1
  Mn  Mn9  1  0.24918920  0.96752644  0.50000000  1
  Mn  Mn10  1  0.23648814  0.53202536  0.50000000  1
  Mn  Mn11  1  0.25203087  0.74293889  0.00000000  1
  Mn  Mn12  1  0.51241854  0.21765951  0.50000000  1
  Mn  Mn13  1  0.75542108  0.01199952  0.50000000  1
  Mn  Mn14  1  0.52975940  0.77392942  0.50000000  1
  Mn  Mn15  1  0.78000199  0.48031448  0.50000000  1
  N  N16  1  0.25196958  0.25037365  0.50000000  1
  N  N17  1  0.24757866  0.99938662  0.00000000  1
  N  N18  1  0.24988660  0.49971228  0.00000000  1
  N  N19  1  0.99813396  0.75043280  0.00000000  1
  N  N20  1  0.74641820  0.99975325  0.00000000  1
  N  N21  1  0.75417247  0.75241490  0.50000000  1
  N  N22  1  0.49342296  0.75144275  0.00000000  1
  N  N23  1  0.48754310  0.52173037  0.50000000  1
  C  C24  1  0.99835330  0.24920380  0.00000000  1
  C  C25  1  0.99954924  0.00437665  0.50000000  1
  C  C26  1  0.25986086  0.74950522  0.50000000  1
  C  C27  1  0.00668265  0.49125132  0.50000000  1
  C  C28  1  0.74087737  0.25451833  0.50000000  1
  C  C29  1  0.49862324  0.24904707  0.00000000  1
  C  C30  1  0.48843320  0.99884794  0.50000000  1
  C  C31  1  0.74923577  0.49924415  0.00000000  1
