# generated using pymatgen
data_Hf3TiC4
_symmetry_space_group_name_H-M   'P 1'
_cell_length_a   9.15388000
_cell_length_b   9.15701650
_cell_length_c   4.58714856
_cell_angle_alpha   90.00000000
_cell_angle_beta   90.00000000
_cell_angle_gamma   90.00000000
_symmetry_Int_Tables_number   1
_chemical_formula_structural   Hf3TiC4
_chemical_formula_sum   'Hf12 Ti4 C16'
_cell_volume   384.50502255
_cell_formula_units_Z   4
loop_
 _symmetry_equiv_pos_site_id
 _symmetry_equiv_pos_as_xyz
  1  'x, y, z'
loop_
 _atom_site_type_symbol
 _atom_site_label
 _atom_site_symmetry_multiplicity
 _atom_site_fract_x
 _atom_site_fract_y
 _atom_site_fract_z
 _atom_site_occupancy
  Hf  Hf0  1  0.00000000  0.00000000  0.00000000  1
  Hf  Hf1  1  0.24686409  0.25000000  0.00000000  1
  Hf  Hf2  1  0.24723049  0.50182828  0.50000000  1
  Hf  Hf3  1  0.50000000  0.00000000  0.00000000  1
  Hf  Hf4  1  0.50204506  0.25000000  0.50000000  1
  Hf  Hf5  1  0.49795494  0.75000000  0.50000000  1
  Hf  Hf6  1  0.75276951  0.49817172  0.50000000  1
  Hf  Hf7  1  0.75313591  0.75000000  0.00000000  1
  Hf  Hf8  1  0.24723049  0.99817172  0.50000000  1
  Hf  Hf9  1  0.50000000  0.50000000  0.00000000  1
  Hf  Hf10  1  0.00000000  0.50000000  0.00000000  1
  Hf  Hf11  1  0.75276951  0.00182828  0.50000000  1
  Ti  Ti12  1  0.24633798  0.75000000  0.00000000  1
  Ti  Ti13  1  0.99765477  0.25000000  0.50000000  1
  Ti  Ti14  1  0.75366202  0.25000000  0.00000000  1
  Ti  Ti15  1  0.00234523  0.75000000  0.50000000  1
  C  C16  1  0.00000000  0.00000000  0.50000000  1
  C  C17  1  0.99500812  0.25000000  0.00000000  1
  C  C18  1  0.24851193  0.99586830  0.00000000  1
  C  C19  1  0.24484608  0.25000000  0.50000000  1
  C  C20  1  0.00000000  0.50000000  0.50000000  1
  C  C21  1  0.00499188  0.75000000  0.00000000  1
  C  C22  1  0.24851193  0.50413170  0.00000000  1
  C  C23  1  0.24400083  0.75000000  0.50000000  1
  C  C24  1  0.50000000  0.00000000  0.50000000  1
  C  C25  1  0.50354507  0.25000000  0.00000000  1
  C  C26  1  0.75148807  0.00413170  0.00000000  1
  C  C27  1  0.75599917  0.25000000  0.50000000  1
  C  C28  1  0.50000000  0.50000000  0.50000000  1
  C  C29  1  0.49645493  0.75000000  0.00000000  1
  C  C30  1  0.75148807  0.49586830  0.00000000  1
  C  C31  1  0.75515392  0.75000000  0.50000000  1
