# generated using pymatgen
data_Hf11Ti5C16
_symmetry_space_group_name_H-M   'P 1'
_cell_length_a   9.12345578
_cell_length_b   9.11985976
_cell_length_c   4.56848010
_cell_angle_alpha   90.00000000
_cell_angle_beta   90.00000000
_cell_angle_gamma   89.90300544
_symmetry_Int_Tables_number   1
_chemical_formula_structural   Hf11Ti5C16
_chemical_formula_sum   'Hf11 Ti5 C16'
_cell_volume   380.11818470
_cell_formula_units_Z   1
loop_
 _symmetry_equiv_pos_site_id
 _symmetry_equiv_pos_as_xyz
  1  'x, y, z'
loop_
 _atom_site_type_symbol
 _atom_site_label
 _atom_site_symmetry_multiplicity
 _atom_site_fract_x
 _atom_site_fract_y
 _atom_site_fract_z
 _atom_site_occupancy
  Hf  Hf0  1  0.99907759  0.99790211  0.00000000  1
  Hf  Hf1  1  0.24766094  0.25222889  0.00000000  1
  Hf  Hf2  1  0.75124251  0.99610559  0.50000000  1
  Hf  Hf3  1  0.50102991  0.99614706  0.00000000  1
  Hf  Hf4  1  0.49889715  0.25162830  0.50000000  1
  Hf  Hf5  1  0.75230235  0.25047914  0.00000000  1
  Hf  Hf6  1  0.75143830  0.50390437  0.50000000  1
  Hf  Hf7  1  0.24860860  0.99782557  0.50000000  1
  Hf  Hf8  1  0.49928728  0.50371046  0.00000000  1
  Hf  Hf9  1  0.00090440  0.50192067  0.00000000  1
  Hf  Hf10  1  0.24947581  0.74768949  0.00000000  1
  Ti  Ti11  1  0.00104665  0.25187739  0.50000000  1
  Ti  Ti12  1  0.99875646  0.74836765  0.50000000  1
  Ti  Ti13  1  0.24826864  0.50252400  0.50000000  1
  Ti  Ti14  1  0.50117631  0.74848245  0.50000000  1
  Ti  Ti15  1  0.75066599  0.74938183  0.00000000  1
  C  C16  1  0.99982611  0.99795908  0.50000000  1
  C  C17  1  0.00014282  0.25077339  0.00000000  1
  C  C18  1  0.24930563  0.99859970  0.00000000  1
  C  C19  1  0.24487742  0.25454701  0.50000000  1
  C  C20  1  0.00424004  0.50182993  0.50000000  1
  C  C21  1  0.99580460  0.74930941  0.00000000  1
  C  C22  1  0.24934113  0.50111166  0.00000000  1
  C  C23  1  0.24928908  0.74460906  0.50000000  1
  C  C24  1  0.50019633  0.99438165  0.50000000  1
  C  C25  1  0.49976764  0.25085115  0.00000000  1
  C  C26  1  0.75064411  0.99434873  0.00000000  1
  C  C27  1  0.75478408  0.25063500  0.50000000  1
  C  C28  1  0.49641954  0.50609114  0.50000000  1
  C  C29  1  0.50402037  0.74939489  0.00000000  1
  C  C30  1  0.75074621  0.50585706  0.00000000  1
  C  C31  1  0.75075604  0.74952617  0.50000000  1
