# generated using pymatgen
data_HfTiCN
_symmetry_space_group_name_H-M   'P 1'
_cell_length_a   8.90086587
_cell_length_b   8.95998134
_cell_length_c   4.45633801
_cell_angle_alpha   90.00000000
_cell_angle_beta   90.00000000
_cell_angle_gamma   90.01008363
_symmetry_Int_Tables_number   1
_chemical_formula_structural   HfTiCN
_chemical_formula_sum   'Hf8 Ti8 C8 N8'
_cell_volume   355.40004570
_cell_formula_units_Z   8
loop_
 _symmetry_equiv_pos_site_id
 _symmetry_equiv_pos_as_xyz
  1  'x, y, z'
loop_
 _atom_site_type_symbol
 _atom_site_label
 _atom_site_symmetry_multiplicity
 _atom_site_fract_x
 _atom_site_fract_y
 _atom_site_fract_z
 _atom_site_occupancy
  Hf  Hf0  1  0.00058826  0.00804850  0.00000000  1
  Hf  Hf1  1  0.00009990  0.75005393  0.50000000  1
  Hf  Hf2  1  0.24218558  0.49815261  0.50000000  1
  Hf  Hf3  1  0.49966740  0.00313749  0.00000000  1
  Hf  Hf4  1  0.50076896  0.24912542  0.50000000  1
  Hf  Hf5  1  0.50288909  0.49599801  0.00000000  1
  Hf  Hf6  1  0.49865285  0.75253819  0.50000000  1
  Hf  Hf7  1  0.75477237  0.74518476  0.00000000  1
  Ti  Ti8  1  0.99921509  0.25080185  0.50000000  1
  Ti  Ti9  1  0.24654606  0.00107456  0.50000000  1
  Ti  Ti10  1  0.24505280  0.24789975  0.00000000  1
  Ti  Ti11  1  0.99658787  0.48967919  0.00000000  1
  Ti  Ti12  1  0.24457529  0.75491419  0.00000000  1
  Ti  Ti13  1  0.75431674  0.01326998  0.50000000  1
  Ti  Ti14  1  0.75603561  0.25256254  0.00000000  1
  Ti  Ti15  1  0.75920205  0.48658467  0.50000000  1
  N  N16  1  0.24647304  0.24877189  0.50000000  1
  N  N17  1  0.24910917  0.00045503  0.00000000  1
  N  N18  1  0.24765947  0.49924916  0.00000000  1
  N  N19  1  0.00147551  0.74993387  0.00000000  1
  N  N20  1  0.75091468  0.00050838  0.00000000  1
  N  N21  1  0.74997681  0.74966444  0.50000000  1
  N  N22  1  0.50047859  0.74941204  0.00000000  1
  N  N23  1  0.49903714  0.50066067  0.50000000  1
  C  C24  1  0.00200817  0.25475288  0.00000000  1
  C  C25  1  0.00020483  0.00396181  0.50000000  1
  C  C26  1  0.24960494  0.75323133  0.50000000  1
  C  C27  1  0.99558806  0.49517721  0.50000000  1
  C  C28  1  0.75569863  0.24953201  0.50000000  1
  C  C29  1  0.49602128  0.25053268  0.00000000  1
  C  C30  1  0.49998632  0.99928817  0.50000000  1
  C  C31  1  0.75460744  0.49584281  0.00000000  1
