# generated using pymatgen
data_Hf5Ti3C8
_symmetry_space_group_name_H-M   'P 1'
_cell_length_a   9.09481649
_cell_length_b   9.07224512
_cell_length_c   4.55203123
_cell_angle_alpha   90.00000000
_cell_angle_beta   90.00000000
_cell_angle_gamma   90.00000000
_symmetry_Int_Tables_number   1
_chemical_formula_structural   Hf5Ti3C8
_chemical_formula_sum   'Hf10 Ti6 C16'
_cell_volume   375.58993817
_cell_formula_units_Z   2
loop_
 _symmetry_equiv_pos_site_id
 _symmetry_equiv_pos_as_xyz
  1  'x, y, z'
loop_
 _atom_site_type_symbol
 _atom_site_label
 _atom_site_symmetry_multiplicity
 _atom_site_fract_x
 _atom_site_fract_y
 _atom_site_fract_z
 _atom_site_occupancy
  Hf  Hf0  1  0.99980189  0.99711982  0.00000000  1
  Hf  Hf1  1  0.75000000  0.99451117  0.50000000  1
  Hf  Hf2  1  0.50019811  0.99711982  0.00000000  1
  Hf  Hf3  1  0.49812248  0.25313180  0.50000000  1
  Hf  Hf4  1  0.75000000  0.25297595  0.00000000  1
  Hf  Hf5  1  0.25000000  0.99881138  0.50000000  1
  Hf  Hf6  1  0.50028416  0.50292933  0.00000000  1
  Hf  Hf7  1  0.99971584  0.50292933  0.00000000  1
  Hf  Hf8  1  0.25000000  0.74689550  0.00000000  1
  Hf  Hf9  1  0.00187752  0.25313180  0.50000000  1
  Ti  Ti10  1  0.25000000  0.50148881  0.50000000  1
  Ti  Ti11  1  0.50234282  0.74661738  0.50000000  1
  Ti  Ti12  1  0.75000000  0.74657986  0.00000000  1
  Ti  Ti13  1  0.25000000  0.25362008  0.00000000  1
  Ti  Ti14  1  0.75000000  0.50563600  0.50000000  1
  Ti  Ti15  1  0.99765718  0.74661738  0.50000000  1
  C  C16  1  0.99989966  0.99466972  0.50000000  1
  C  C17  1  0.00430481  0.25164051  0.00000000  1
  C  C18  1  0.25000000  0.00176559  0.00000000  1
  C  C19  1  0.25000000  0.25583428  0.50000000  1
  C  C20  1  0.99973688  0.50635131  0.50000000  1
  C  C21  1  0.99540494  0.74874021  0.00000000  1
  C  C22  1  0.25000000  0.49637449  0.00000000  1
  C  C23  1  0.25000000  0.74374942  0.50000000  1
  C  C24  1  0.50010034  0.99466972  0.50000000  1
  C  C25  1  0.49569519  0.25164051  0.00000000  1
  C  C26  1  0.75000000  0.99418634  0.00000000  1
  C  C27  1  0.75000000  0.25510521  0.50000000  1
  C  C28  1  0.50026312  0.50635131  0.50000000  1
  C  C29  1  0.50459506  0.74874021  0.00000000  1
  C  C30  1  0.75000000  0.50668333  0.00000000  1
  C  C31  1  0.75000000  0.74338241  0.50000000  1
