# generated using pymatgen
data_Hf13Ti3C16
_symmetry_space_group_name_H-M   'P 1'
_cell_length_a   9.20191149
_cell_length_b   9.18514604
_cell_length_c   4.60254056
_cell_angle_alpha   90.00000000
_cell_angle_beta   90.00000000
_cell_angle_gamma   90.00000000
_symmetry_Int_Tables_number   1
_chemical_formula_structural   Hf13Ti3C16
_chemical_formula_sum   'Hf13 Ti3 C16'
_cell_volume   389.01087448
_cell_formula_units_Z   1
loop_
 _symmetry_equiv_pos_site_id
 _symmetry_equiv_pos_as_xyz
  1  'x, y, z'
loop_
 _atom_site_type_symbol
 _atom_site_label
 _atom_site_symmetry_multiplicity
 _atom_site_fract_x
 _atom_site_fract_y
 _atom_site_fract_z
 _atom_site_occupancy
  Hf  Hf0  1  0.99766232  0.00000000  0.00000000  1
  Hf  Hf1  1  0.99874920  0.25142671  0.50000000  1
  Hf  Hf2  1  0.25000000  0.25221145  0.00000000  1
  Hf  Hf3  1  0.99874920  0.74857329  0.50000000  1
  Hf  Hf4  1  0.25000000  0.50000000  0.50000000  1
  Hf  Hf5  1  0.50233768  0.00000000  0.00000000  1
  Hf  Hf6  1  0.50125080  0.25142671  0.50000000  1
  Hf  Hf7  1  0.75000000  0.25049204  0.00000000  1
  Hf  Hf8  1  0.50125080  0.74857329  0.50000000  1
  Hf  Hf9  1  0.75000000  0.50000000  0.50000000  1
  Hf  Hf10  1  0.75000000  0.74950796  0.00000000  1
  Hf  Hf11  1  0.25000000  0.74778855  0.00000000  1
  Hf  Hf12  1  0.25000000  0.00000000  0.50000000  1
  Ti  Ti13  1  0.50053710  0.50000000  0.00000000  1
  Ti  Ti14  1  0.99946290  0.50000000  0.00000000  1
  Ti  Ti15  1  0.75000000  0.00000000  0.50000000  1
  C  C16  1  0.99535168  0.00000000  0.50000000  1
  C  C17  1  0.99933427  0.25436726  0.00000000  1
  C  C18  1  0.25000000  0.00000000  0.00000000  1
  C  C19  1  0.25000000  0.25086717  0.50000000  1
  C  C20  1  0.99955488  0.50000000  0.50000000  1
  C  C21  1  0.99933427  0.74563274  0.00000000  1
  C  C22  1  0.25000000  0.50000000  0.00000000  1
  C  C23  1  0.25000000  0.74913283  0.50000000  1
  C  C24  1  0.50464832  0.00000000  0.50000000  1
  C  C25  1  0.50066573  0.25436726  0.00000000  1
  C  C26  1  0.75000000  0.00000000  0.00000000  1
  C  C27  1  0.75000000  0.24717340  0.50000000  1
  C  C28  1  0.50044512  0.50000000  0.50000000  1
  C  C29  1  0.50066573  0.74563274  0.00000000  1
  C  C30  1  0.75000000  0.50000000  0.00000000  1
  C  C31  1  0.75000000  0.75282660  0.50000000  1
