# generated using pymatgen
data_Ta13Nb3C16
_symmetry_space_group_name_H-M   'P 1'
_cell_length_a   8.98662849
_cell_length_b   8.98677138
_cell_length_c   4.45713128
_cell_angle_alpha   90.00000000
_cell_angle_beta   90.00000000
_cell_angle_gamma   90.02560059
_symmetry_Int_Tables_number   1
_chemical_formula_structural   Ta13Nb3C16
_chemical_formula_sum   'Ta13 Nb3 C16'
_cell_volume   359.96134359
_cell_formula_units_Z   1
loop_
 _symmetry_equiv_pos_site_id
 _symmetry_equiv_pos_as_xyz
  1  'x, y, z'
loop_
 _atom_site_type_symbol
 _atom_site_label
 _atom_site_symmetry_multiplicity
 _atom_site_fract_x
 _atom_site_fract_y
 _atom_site_fract_z
 _atom_site_occupancy
  Ta  Ta0  1  0.00272398  0.99850388  0.00000000  1
  Ta  Ta1  1  0.00197458  0.25119036  0.50000000  1
  Ta  Ta2  1  0.25145313  0.24600665  0.00000000  1
  Ta  Ta3  1  0.99719367  0.50148499  0.00000000  1
  Ta  Ta4  1  0.99741343  0.74857042  0.50000000  1
  Ta  Ta5  1  0.24819427  0.49848305  0.50000000  1
  Ta  Ta6  1  0.24986855  0.75416648  0.00000000  1
  Ta  Ta7  1  0.49801651  0.24702489  0.50000000  1
  Ta  Ta8  1  0.74760344  0.99695949  0.50000000  1
  Ta  Ta9  1  0.74846040  0.25150178  0.00000000  1
  Ta  Ta10  1  0.50287471  0.49983305  0.00000000  1
  Ta  Ta11  1  0.50243080  0.75286695  0.50000000  1
  Ta  Ta12  1  0.75179664  0.50297650  0.50000000  1
  Nb  Nb13  1  0.25325569  0.00227874  0.50000000  1
  Nb  Nb14  1  0.49588230  0.00086775  0.00000000  1
  Nb  Nb15  1  0.75077598  0.74723291  0.00000000  1
  C  C16  1  0.24986411  0.25224084  0.50000000  1
  C  C17  1  0.24777112  0.99954289  0.00000000  1
  C  C18  1  -0.00027472  0.24946940  0.00000000  1
  C  C19  1  0.99771083  0.00003448  0.50000000  1
  C  C20  1  0.25024433  0.74795856  0.50000000  1
  C  C21  1  0.25049507  0.50057176  0.00000000  1
  C  C22  1  0.00236188  0.75069080  0.00000000  1
  C  C23  1  0.00049327  0.49981161  0.50000000  1
  C  C24  1  0.75002039  0.24922885  0.50000000  1
  C  C25  1  0.75217772  0.00216436  0.00000000  1
  C  C26  1  0.50041448  0.25198910  0.00000000  1
  C  C27  1  0.50253916  -0.00045185  0.50000000  1
  C  C28  1  0.74953737  0.75077061  0.50000000  1
  C  C29  1  0.74949004  0.49762395  0.00000000  1
  C  C30  1  0.49776621  0.74817576  0.00000000  1
  C  C31  1  0.49947067  0.50023101  0.50000000  1
