# generated using pymatgen
data_Ta5Nb3C8
_symmetry_space_group_name_H-M   'P 1'
_cell_length_a   8.98053281
_cell_length_b   8.98829887
_cell_length_c   4.45766936
_cell_angle_alpha   90.00000000
_cell_angle_beta   90.00000000
_cell_angle_gamma   90.00000000
_symmetry_Int_Tables_number   1
_chemical_formula_structural   Ta5Nb3C8
_chemical_formula_sum   'Ta10 Nb6 C16'
_cell_volume   359.82179098
_cell_formula_units_Z   2
loop_
 _symmetry_equiv_pos_site_id
 _symmetry_equiv_pos_as_xyz
  1  'x, y, z'
loop_
 _atom_site_type_symbol
 _atom_site_label
 _atom_site_symmetry_multiplicity
 _atom_site_fract_x
 _atom_site_fract_y
 _atom_site_fract_z
 _atom_site_occupancy
  Ta  Ta0  1  0.00195602  0.99910527  0.00000000  1
  Ta  Ta1  1  0.00195602  0.25089473  0.50000000  1
  Ta  Ta2  1  0.25274214  0.00260465  0.50000000  1
  Ta  Ta3  1  0.25274214  0.24739535  0.00000000  1
  Ta  Ta4  1  0.99591382  0.50090672  0.00000000  1
  Ta  Ta5  1  0.99591382  0.74909328  0.50000000  1
  Ta  Ta6  1  0.25239018  0.49754762  0.50000000  1
  Ta  Ta7  1  0.25239018  0.75245238  0.00000000  1
  Ta  Ta8  1  0.74691413  0.99702359  0.50000000  1
  Ta  Ta9  1  0.74691413  0.25297641  0.00000000  1
  C  C10  1  0.24850384  0.25066639  0.50000000  1
  C  C11  1  0.24850384  0.99933361  0.00000000  1
  C  C12  1  0.99917156  0.25014258  0.00000000  1
  C  C13  1  0.99917156  -0.00014258  0.50000000  1
  C  C14  1  0.24889523  0.74925909  0.50000000  1
  C  C15  1  0.24889523  0.50074091  0.00000000  1
  C  C16  1  0.00213584  0.75008654  0.00000000  1
  C  C17  1  0.00213584  0.49991346  0.50000000  1
  C  C18  1  0.75140395  0.24763009  0.50000000  1
  C  C19  1  0.75140395  0.00236991  0.00000000  1
  C  C20  1  0.50087884  0.25057710  0.00000000  1
  C  C21  1  0.50087884  0.99942290  0.50000000  1
  C  C22  1  0.75112670  0.75242902  0.50000000  1
  C  C23  1  0.75112670  0.49757098  0.00000000  1
  C  C24  1  0.49784680  0.74972817  0.00000000  1
  C  C25  1  0.49784680  0.50027183  0.50000000  1
  Nb  Nb26  1  0.49702129  0.00025544  0.00000000  1
  Nb  Nb27  1  0.49702129  0.24974456  0.50000000  1
  Nb  Nb28  1  0.50479295  0.49974923  0.00000000  1
  Nb  Nb29  1  0.50479295  0.75025077  0.50000000  1
  Nb  Nb30  1  0.74830671  0.50423459  0.50000000  1
  Nb  Nb31  1  0.74830671  0.74576541  0.00000000  1
