# generated using pymatgen
data_Ta3NbC4
_symmetry_space_group_name_H-M   'P 1'
_cell_length_a   8.98778020
_cell_length_b   8.98778020
_cell_length_c   4.45730928
_cell_angle_alpha   90.00000000
_cell_angle_beta   90.00000000
_cell_angle_gamma   89.99358339
_symmetry_Int_Tables_number   1
_chemical_formula_structural   Ta3NbC4
_chemical_formula_sum   'Ta12 Nb4 C16'
_cell_volume   360.06230115
_cell_formula_units_Z   4
loop_
 _symmetry_equiv_pos_site_id
 _symmetry_equiv_pos_as_xyz
  1  'x, y, z'
loop_
 _atom_site_type_symbol
 _atom_site_label
 _atom_site_symmetry_multiplicity
 _atom_site_fract_x
 _atom_site_fract_y
 _atom_site_fract_z
 _atom_site_occupancy
  Nb  Nb0  1  0.99792764  0.00207236  0.00000000  1
  Nb  Nb1  1  0.25263068  0.50358527  0.50000000  1
  Nb  Nb2  1  0.25338709  0.74661291  0.00000000  1
  Nb  Nb3  1  0.49641473  0.74736932  0.50000000  1
  Ta  Ta4  1  -0.00177079  0.24691958  0.50000000  1
  Ta  Ta5  1  0.24711598  0.99726379  0.50000000  1
  Ta  Ta6  1  0.24763267  0.25218910  0.00000000  1
  Ta  Ta7  1  0.00373017  0.49907442  0.00000000  1
  Ta  Ta8  1  0.00273621  0.75288402  0.50000000  1
  Ta  Ta9  1  0.50092558  0.99626983  0.00000000  1
  Ta  Ta10  1  0.50143530  0.25196337  0.50000000  1
  Ta  Ta11  1  0.75308042  0.00177079  0.50000000  1
  Ta  Ta12  1  0.75239846  0.24760154  0.00000000  1
  Ta  Ta13  1  0.49651510  0.50348490  0.00000000  1
  Ta  Ta14  1  0.74803663  0.49856470  0.50000000  1
  Ta  Ta15  1  0.74781090  0.75236733  0.00000000  1
  C  C16  1  0.25040943  0.24788405  0.50000000  1
  C  C17  1  0.25224102  0.00181871  0.00000000  1
  C  C18  1  0.00074082  0.25257498  0.00000000  1
  C  C19  1  0.00074957  0.99925043  0.50000000  1
  C  C20  1  0.24751096  0.75248904  0.50000000  1
  C  C21  1  0.24962435  0.49792277  0.00000000  1
  C  C22  1  0.99818129  0.74775898  0.00000000  1
  C  C23  1  0.99821656  0.50073330  0.50000000  1
  C  C24  1  0.74952599  0.25047401  0.50000000  1
  C  C25  1  0.74742502  0.99925918  0.00000000  1
  C  C26  1  0.49941970  0.24964040  0.00000000  1
  C  C27  1  0.49926670  0.00178344  0.50000000  1
  C  C28  1  0.75211595  0.74959057  0.50000000  1
  C  C29  1  0.75035960  0.50058030  0.00000000  1
  C  C30  1  0.50207723  0.75037565  0.00000000  1
  C  C31  1  0.50212902  0.49787098  0.50000000  1
