# generated using pymatgen
data_Ta9Nb7C16
_symmetry_space_group_name_H-M   'P 1'
_cell_length_a   8.98858756
_cell_length_b   8.98543589
_cell_length_c   4.45936506
_cell_angle_alpha   90.00000000
_cell_angle_beta   90.00000000
_cell_angle_gamma   89.94002037
_symmetry_Int_Tables_number   1
_chemical_formula_structural   Ta9Nb7C16
_chemical_formula_sum   'Ta9 Nb7 C16'
_cell_volume   360.16656357
_cell_formula_units_Z   1
loop_
 _symmetry_equiv_pos_site_id
 _symmetry_equiv_pos_as_xyz
  1  'x, y, z'
loop_
 _atom_site_type_symbol
 _atom_site_label
 _atom_site_symmetry_multiplicity
 _atom_site_fract_x
 _atom_site_fract_y
 _atom_site_fract_z
 _atom_site_occupancy
  Ta  Ta0  1  0.99983648  0.00251817  0.00000000  1
  Ta  Ta1  1  0.25088206  0.99675465  0.50000000  1
  Ta  Ta2  1  0.24557055  0.25135612  0.00000000  1
  Ta  Ta3  1  0.00204338  0.74706419  0.50000000  1
  Ta  Ta4  1  0.49992944  0.99688620  0.00000000  1
  Ta  Ta5  1  0.50281720  0.25053172  0.50000000  1
  Ta  Ta6  1  0.74924164  0.00221468  0.50000000  1
  Ta  Ta7  1  0.50119762  0.50314507  0.00000000  1
  Ta  Ta8  1  0.49773020  0.74991306  0.50000000  1
  Nb  Nb9  1  0.99622597  0.25315579  0.50000000  1
  Nb  Nb10  1  -0.00136130  0.49623985  0.00000000  1
  Nb  Nb11  1  0.24766119  0.50425715  0.50000000  1
  Nb  Nb12  1  0.25304215  0.74922501  0.00000000  1
  Nb  Nb13  1  0.75552577  0.25238388  0.00000000  1
  Nb  Nb14  1  0.75238452  0.49685392  0.50000000  1
  Nb  Nb15  1  0.74725152  0.74744392  0.00000000  1
  C  C16  1  0.25224995  0.24876622  0.50000000  1
  C  C17  1  0.24943137  0.00236988  0.00000000  1
  C  C18  1  0.00214253  0.24840397  0.00000000  1
  C  C19  1  -0.00011635  0.99779388  0.50000000  1
  C  C20  1  0.24909935  0.75130907  0.50000000  1
  C  C21  1  0.25146957  0.49767781  0.00000000  1
  C  C22  1  0.99902364  0.75165429  0.00000000  1
  C  C23  1  0.00012109  0.50261949  0.50000000  1
  C  C24  1  0.74765353  0.24829960  0.50000000  1
  C  C25  1  0.75035649  -0.00057591  0.00000000  1
  C  C26  1  0.49797420  0.25041545  0.00000000  1
  C  C27  1  0.50034916  0.00053428  0.50000000  1
  C  C28  1  0.75098621  0.75137862  0.50000000  1
  C  C29  1  0.74828795  0.50060864  0.00000000  1
  C  C30  1  0.50079151  0.74938633  0.00000000  1
  C  C31  1  0.50020140  0.49941503  0.50000000  1
