# generated using pymatgen
data_AlFeCoNi
_symmetry_space_group_name_H-M   'P 1'
_cell_length_a   5.17404022
_cell_length_b   5.07079205
_cell_length_c   7.06371008
_cell_angle_alpha   92.40634921
_cell_angle_beta   89.67134459
_cell_angle_gamma   90.78585498
_symmetry_Int_Tables_number   1
_chemical_formula_structural   AlFeCoNi
_chemical_formula_sum   'Al4 Fe4 Co4 Ni4'
_cell_volume   185.14359185
_cell_formula_units_Z   4
loop_
 _symmetry_equiv_pos_site_id
 _symmetry_equiv_pos_as_xyz
  1  'x, y, z'
loop_
 _atom_site_type_symbol
 _atom_site_label
 _atom_site_symmetry_multiplicity
 _atom_site_fract_x
 _atom_site_fract_y
 _atom_site_fract_z
 _atom_site_occupancy
  Al  Al0  1  0.25586035  0.77869432  0.73769528  1
  Al  Al1  1  0.73450095  0.22698322  0.25834519  1
  Al  Al2  1  0.49899213  0.49665004  0.00079685  1
  Al  Al3  1  0.00159337  0.49467313  0.00472008  1
  Co  Co4  1  0.50740527  0.50558623  0.50276281  1
  Co  Co5  1  0.23956936  0.24417420  0.25432559  1
  Co  Co6  1  0.25145797  0.75212854  0.25801461  1
  Co  Co7  1  0.00093717  0.99091944  0.00261679  1
  Fe  Fe8  1  0.75999310  0.75916132  0.74149902  1
  Fe  Fe9  1  0.75023765  0.73861371  0.25990409  1
  Fe  Fe10  1  -0.00210140  -0.00337923  0.48843514  1
  Fe  Fe11  1  0.00722535  0.49489323  0.49538813  1
  Ni  Ni12  1  0.75365968  0.25282985  0.74558286  1
  Ni  Ni13  1  0.24682973  0.26965047  0.74985433  1
  Ni  Ni14  1  0.49633178  0.00513155  0.49993291  1
  Ni  Ni15  1  0.49750753  0.99329000  0.00012633  1
