# generated using pymatgen
data_AlCrFeCoNi
_symmetry_space_group_name_H-M   'P 1'
_cell_length_a   5.57371454
_cell_length_b   5.75723212
_cell_length_c   7.29088414
_cell_angle_alpha   90.14926690
_cell_angle_beta   88.98218940
_cell_angle_gamma   88.53175491
_symmetry_Int_Tables_number   1
_chemical_formula_structural   AlCrFeCoNi
_chemical_formula_sum   'Al4 Cr4 Fe4 Co4 Ni4'
_cell_volume   233.84359788
_cell_formula_units_Z   4
loop_
 _symmetry_equiv_pos_site_id
 _symmetry_equiv_pos_as_xyz
  1  'x, y, z'
loop_
 _atom_site_type_symbol
 _atom_site_label
 _atom_site_symmetry_multiplicity
 _atom_site_fract_x
 _atom_site_fract_y
 _atom_site_fract_z
 _atom_site_occupancy
  Al  Al0  1  0.08216811  0.28285816  0.73915608  1
  Al  Al1  1  0.20120917  0.60650096  0.99748400  1
  Al  Al2  1  0.29558333  0.89839564  0.26107228  1
  Al  Al3  1  0.42470240  0.19346685  0.99841674  1
  Co  Co4  1  0.29573681  0.89432195  0.75048772  1
  Co  Co5  1  0.50552591  0.50032346  0.74820490  1
  Co  Co6  1  0.59862750  0.79946512  0.50250514  1
  Co  Co7  1  0.89817601  0.69871950  0.25310280  1
  Cr  Cr8  1  0.97049046  0.00945118  0.00451388  1
  Cr  Cr9  1  0.20333810  0.59709319  0.51546883  1
  Cr  Cr10  1  0.41687729  0.20864928  0.50162518  1
  Cr  Cr11  1  0.88214536  0.70627356  0.73493675  1
  Fe  Fe12  1  0.70825600  0.09305581  0.26265064  1
  Fe  Fe13  1  0.78768165  0.40663139  0.49054878  1
  Fe  Fe14  1  0.61881474  0.79548602  0.99692811  1
  Fe  Fe15  1  0.80941783  0.40784705  0.00479201  1
  Ni  Ni16  1  0.99994074  0.99921528  0.49906467  1
  Ni  Ni17  1  0.10529290  0.30306203  0.24931074  1
  Ni  Ni18  1  0.69034313  0.09695826  0.74274311  1
  Ni  Ni19  1  0.50567256  0.50222532  0.24698763  1
