# generated using pymatgen
data_ZrAlFeCoNi
_symmetry_space_group_name_H-M   'P 1'
_cell_length_a   5.91633679
_cell_length_b   5.49932842
_cell_length_c   8.66909053
_cell_angle_alpha   88.81728710
_cell_angle_beta   95.07242837
_cell_angle_gamma   93.80492936
_symmetry_Int_Tables_number   1
_chemical_formula_structural   ZrAlFeCoNi
_chemical_formula_sum   'Zr4 Al4 Fe4 Co4 Ni4'
_cell_volume   280.30161483
_cell_formula_units_Z   4
loop_
 _symmetry_equiv_pos_site_id
 _symmetry_equiv_pos_as_xyz
  1  'x, y, z'
loop_
 _atom_site_type_symbol
 _atom_site_label
 _atom_site_symmetry_multiplicity
 _atom_site_fract_x
 _atom_site_fract_y
 _atom_site_fract_z
 _atom_site_occupancy
  Al  Al0  1  0.01557084  0.20403070  0.68402071  1
  Al  Al1  1  0.17694443  0.58275962  0.00658414  1
  Al  Al2  1  0.32407130  0.88943641  0.25284536  1
  Al  Al3  1  0.43937933  0.21194420  0.03386152  1
  Co  Co4  1  0.29845449  0.91276580  0.79339228  1
  Co  Co5  1  0.36565041  0.44461194  0.79576637  1
  Co  Co6  1  0.66044948  0.77987112  0.43842811  1
  Co  Co7  1  0.91680584  0.71657690  0.23433145  1
  Zr  Zr8  1  0.98433723  0.03702177  0.99888874  1
  Zr  Zr9  1  0.24601074  0.63409152  0.53431286  1
  Zr  Zr10  1  0.50355196  0.16380172  0.53439168  1
  Zr  Zr11  1  0.77164786  0.67056371  0.72379911  1
  Fe  Fe12  1  0.73317638  0.10030326  0.24469819  1
  Fe  Fe13  1  0.85320558  0.40985441  0.42788071  1
  Fe  Fe14  1  0.56246694  0.79413246  0.01650729  1
  Fe  Fe15  1  0.78505313  0.46545955  0.02894634  1
  Ni  Ni16  1  0.04064446  0.01801726  0.44250129  1
  Ni  Ni17  1  0.13621504  0.31817830  0.24390165  1
  Ni  Ni18  1  0.66092245  0.15177720  0.81649753  1
  Ni  Ni19  1  0.52544212  0.49480217  0.24844465  1
