# generated using pymatgen
data_AlZnFeCoNi
_symmetry_space_group_name_H-M   'P 1'
_cell_length_a   5.61179963
_cell_length_b   5.85456874
_cell_length_c   7.37418796
_cell_angle_alpha   90.05305352
_cell_angle_beta   89.80651546
_cell_angle_gamma   88.16341467
_symmetry_Int_Tables_number   1
_chemical_formula_structural   AlZnFeCoNi
_chemical_formula_sum   'Al4 Zn4 Fe4 Co4 Ni4'
_cell_volume   242.15051997
_cell_formula_units_Z   4
loop_
 _symmetry_equiv_pos_site_id
 _symmetry_equiv_pos_as_xyz
  1  'x, y, z'
loop_
 _atom_site_type_symbol
 _atom_site_label
 _atom_site_symmetry_multiplicity
 _atom_site_fract_x
 _atom_site_fract_y
 _atom_site_fract_z
 _atom_site_occupancy
  Al  Al0  1  0.08307079  0.28296368  0.74108976  1
  Al  Al1  1  0.19938028  0.59733627  0.00554067  1
  Al  Al2  1  0.30270666  0.89983956  0.26385736  1
  Al  Al3  1  0.42840653  0.19056689  0.99608761  1
  Co  Co4  1  0.31710835  0.89431960  0.75857247  1
  Co  Co5  1  0.49815301  0.49694979  0.75662336  1
  Co  Co6  1  0.60474733  0.79359185  0.49889936  1
  Co  Co7  1  0.89121227  0.70411915  0.24820791  1
  Zn  Zn8  1  0.98542431  0.00838766  0.00375758  1
  Zn  Zn9  1  0.20327407  0.60264114  0.49940565  1
  Zn  Zn10  1  0.40548511  0.19809611  0.50365137  1
  Zn  Zn11  1  0.89164795  0.71372019  0.74252339  1
  Fe  Fe12  1  0.70742900  0.09703649  0.25905526  1
  Fe  Fe13  1  0.78986250  0.41276313  0.48968597  1
  Fe  Fe14  1  0.59810011  0.78758843  0.00421408  1
  Fe  Fe15  1  0.79434976  0.41947592  0.00141899  1
  Ni  Ni16  1  0.99474698  0.00465910  0.49334928  1
  Ni  Ni17  1  0.10145653  0.29624668  0.24353640  1
  Ni  Ni18  1  0.70087274  0.10041876  0.74294174  1
  Ni  Ni19  1  0.50256573  0.49927961  0.24758179  1
