# generated using pymatgen
data_YAlFeCoNi
_symmetry_space_group_name_H-M   'P 1'
_cell_length_a   5.96946310
_cell_length_b   5.62028619
_cell_length_c   9.31653701
_cell_angle_alpha   83.53778489
_cell_angle_beta   91.97024471
_cell_angle_gamma   88.56318359
_symmetry_Int_Tables_number   1
_chemical_formula_structural   YAlFeCoNi
_chemical_formula_sum   'Y4 Al4 Fe4 Co4 Ni4'
_cell_volume   310.26919797
_cell_formula_units_Z   4
loop_
 _symmetry_equiv_pos_site_id
 _symmetry_equiv_pos_as_xyz
  1  'x, y, z'
loop_
 _atom_site_type_symbol
 _atom_site_label
 _atom_site_symmetry_multiplicity
 _atom_site_fract_x
 _atom_site_fract_y
 _atom_site_fract_z
 _atom_site_occupancy
  Al  Al0  1  0.00747848  0.15141021  0.67360683  1
  Al  Al1  1  0.17403410  0.59082540  0.02672409  1
  Al  Al2  1  0.38121794  0.93135206  0.23983690  1
  Al  Al3  1  0.51011980  0.27942394  0.02505504  1
  Co  Co4  1  0.29782593  0.82332815  0.80119112  1
  Co  Co5  1  0.28871682  0.40370368  0.79787337  1
  Co  Co6  1  0.68791353  0.76572060  0.40802543  1
  Co  Co7  1  0.01069803  0.78189707  0.24539859  1
  Y  Y8  1  -0.00243678  0.09160083  0.98623582  1
  Y  Y9  1  0.22505258  0.61763832  0.51668071  1
  Y  Y10  1  0.50874727  0.12791225  0.53020611  1
  Y  Y11  1  0.76954690  0.62600449  0.75409623  1
  Fe  Fe12  1  0.74642100  0.12312762  0.24006108  1
  Fe  Fe13  1  0.83707570  0.41600051  0.38202766  1
  Fe  Fe14  1  0.53835986  0.81021812  0.00628215  1
  Fe  Fe15  1  0.80205619  0.53527783  0.12139754  1
  Ni  Ni16  1  0.00166480  0.02690222  0.44512004  1
  Ni  Ni17  1  0.13484314  0.28207895  0.24128849  1
  Ni  Ni18  1  0.61734057  0.11259567  0.80853386  1
  Ni  Ni19  1  0.46332415  0.50298211  0.25035895  1
