# generated using pymatgen
data_AlVFeCoNi
_symmetry_space_group_name_H-M   'P 1'
_cell_length_a   5.49575898
_cell_length_b   5.77248612
_cell_length_c   7.46101700
_cell_angle_alpha   90.38431816
_cell_angle_beta   89.01203583
_cell_angle_gamma   88.97027703
_symmetry_Int_Tables_number   1
_chemical_formula_structural   AlVFeCoNi
_chemical_formula_sum   'Al4 V4 Fe4 Co4 Ni4'
_cell_volume   236.61550285
_cell_formula_units_Z   4
loop_
 _symmetry_equiv_pos_site_id
 _symmetry_equiv_pos_as_xyz
  1  'x, y, z'
loop_
 _atom_site_type_symbol
 _atom_site_label
 _atom_site_symmetry_multiplicity
 _atom_site_fract_x
 _atom_site_fract_y
 _atom_site_fract_z
 _atom_site_occupancy
  Al  Al0  1  0.08139923  0.28307996  0.74148621  1
  Al  Al1  1  0.20145855  0.59743388  0.00420890  1
  Al  Al2  1  0.30752194  0.90228240  0.25039883  1
  Al  Al3  1  0.43409948  0.19301864  0.99576716  1
  Co  Co4  1  0.28011163  0.88549082  0.75968137  1
  Co  Co5  1  0.48347574  0.49649288  0.73953982  1
  Co  Co6  1  0.59519182  0.79359687  0.49713154  1
  Co  Co7  1  0.89821309  0.70126587  0.25597620  1
  V  V8  1  0.96103397  0.01627897  0.01215349  1
  V  V9  1  0.19987490  0.60673117  0.50039860  1
  V  V10  1  0.42485247  0.19683035  0.50142474  1
  V  V11  1  0.86431140  0.70487920  0.74303385  1
  Fe  Fe12  1  0.71374247  0.09917864  0.26600618  1
  Fe  Fe13  1  0.80809922  0.41414377  0.49542210  1
  Fe  Fe14  1  0.61684874  0.79303274  0.99414063  1
  Fe  Fe15  1  0.80945038  0.40994567  0.00151397  1
  Ni  Ni16  1  0.00732524  0.00186960  0.49571566  1
  Ni  Ni17  1  0.11142094  0.30257817  0.25024219  1
  Ni  Ni18  1  0.68916179  0.10004897  0.74122744  1
  Ni  Ni19  1  0.51240700  0.50182142  0.25453109  1
