# generated using pymatgen
data_TaAlFeCoNi
_symmetry_space_group_name_H-M   'P 1'
_cell_length_a   5.63274999
_cell_length_b   5.88084934
_cell_length_c   7.72819405
_cell_angle_alpha   90.20800105
_cell_angle_beta   89.76600409
_cell_angle_gamma   89.60322250
_symmetry_Int_Tables_number   1
_chemical_formula_structural   TaAlFeCoNi
_chemical_formula_sum   'Ta4 Al4 Fe4 Co4 Ni4'
_cell_volume   255.98917777
_cell_formula_units_Z   4
loop_
 _symmetry_equiv_pos_site_id
 _symmetry_equiv_pos_as_xyz
  1  'x, y, z'
loop_
 _atom_site_type_symbol
 _atom_site_label
 _atom_site_symmetry_multiplicity
 _atom_site_fract_x
 _atom_site_fract_y
 _atom_site_fract_z
 _atom_site_occupancy
  Al  Al0  1  0.07646390  0.28319672  0.74067574  1
  Al  Al1  1  0.20429449  0.58111069  0.00925887  1
  Al  Al2  1  0.32310131  0.89831545  0.23679275  1
  Al  Al3  1  0.45511749  0.19568323  0.00167298  1
  Co  Co4  1  0.27611780  0.89065189  0.76863090  1
  Co  Co5  1  0.46332701  0.49098805  0.75167323  1
  Co  Co6  1  0.61138312  0.78929946  0.47555444  1
  Co  Co7  1  0.90024244  0.70258430  0.24878308  1
  Ta  Ta8  1  0.96727644  0.01956197  0.01610115  1
  Ta  Ta9  1  0.20961984  0.61729387  0.49581626  1
  Ta  Ta10  1  0.42399530  0.17775016  0.50157081  1
  Ta  Ta11  1  0.84647497  0.70268726  0.74542986  1
  Fe  Fe12  1  0.71369604  0.09773631  0.26771533  1
  Fe  Fe13  1  0.80669323  0.41138894  0.49179602  1
  Fe  Fe14  1  0.59727781  0.79094932  0.00006180  1
  Fe  Fe15  1  0.81052476  0.42712653  0.00368611  1
  Ni  Ni16  1  0.99696711  0.00899230  0.49366120  1
  Ni  Ni17  1  0.10663441  0.30332541  0.25278183  1
  Ni  Ni18  1  0.69125291  0.11426885  0.74962367  1
  Ni  Ni19  1  0.51953964  0.49708928  0.24871396  1
