# generated using pymatgen
data_AlFeCoNiRh
_symmetry_space_group_name_H-M   'P 1'
_cell_length_a   5.75565856
_cell_length_b   5.79228357
_cell_length_c   7.31769093
_cell_angle_alpha   89.04909816
_cell_angle_beta   89.66796118
_cell_angle_gamma   89.67418887
_symmetry_Int_Tables_number   1
_chemical_formula_structural   AlFeCoNiRh
_chemical_formula_sum   'Al4 Fe4 Co4 Ni4 Rh4'
_cell_volume   243.91864881
_cell_formula_units_Z   4
loop_
 _symmetry_equiv_pos_site_id
 _symmetry_equiv_pos_as_xyz
  1  'x, y, z'
loop_
 _atom_site_type_symbol
 _atom_site_label
 _atom_site_symmetry_multiplicity
 _atom_site_fract_x
 _atom_site_fract_y
 _atom_site_fract_z
 _atom_site_occupancy
  Al  Al0  1  0.08916717  0.28439894  0.73498247  1
  Al  Al1  1  0.20072475  0.60743196  0.00190679  1
  Al  Al2  1  0.29380277  0.90346514  0.26660449  1
  Al  Al3  1  0.41787556  0.19058990  0.99333782  1
  Co  Co4  1  0.31664476  0.88485298  0.74228277  1
  Co  Co5  1  0.50165171  0.50292088  0.75722241  1
  Co  Co6  1  0.61017148  0.79459845  0.50157530  1
  Co  Co7  1  0.87737707  0.70053979  0.25541406  1
  Rh  Rh8  1  0.00888732  0.00823000  0.00563901  1
  Rh  Rh9  1  0.20243531  0.60114659  0.49893319  1
  Rh  Rh10  1  0.40964130  0.19406347  0.49739741  1
  Rh  Rh11  1  0.89889050  0.69527088  0.75393678  1
  Fe  Fe12  1  0.71300724  0.10067276  0.24665338  1
  Fe  Fe13  1  0.78506382  0.40831289  0.49043861  1
  Fe  Fe14  1  0.60633431  0.79478735  0.00236728  1
  Fe  Fe15  1  0.79157420  0.41132676  0.01207845  1
  Ni  Ni16  1  0.98384127  0.00186424  0.49743049  1
  Ni  Ni17  1  0.09842201  0.31336252  0.25025295  1
  Ni  Ni18  1  0.69761791  0.09944528  0.74916058  1
  Ni  Ni19  1  0.49686957  0.50271922  0.24238577  1
