# generated using pymatgen
data_AlFeCoReNi
_symmetry_space_group_name_H-M   'P 1'
_cell_length_a   5.75322488
_cell_length_b   5.76669106
_cell_length_c   7.38698205
_cell_angle_alpha   89.88290060
_cell_angle_beta   89.33991772
_cell_angle_gamma   89.83734994
_symmetry_Int_Tables_number   1
_chemical_formula_structural   AlFeCoReNi
_chemical_formula_sum   'Al4 Fe4 Co4 Re4 Ni4'
_cell_volume   245.06067711
_cell_formula_units_Z   4
loop_
 _symmetry_equiv_pos_site_id
 _symmetry_equiv_pos_as_xyz
  1  'x, y, z'
loop_
 _atom_site_type_symbol
 _atom_site_label
 _atom_site_symmetry_multiplicity
 _atom_site_fract_x
 _atom_site_fract_y
 _atom_site_fract_z
 _atom_site_occupancy
  Al  Al0  1  0.07232775  0.27813181  0.74167078  1
  Al  Al1  1  0.20712999  0.59890115  0.00118040  1
  Al  Al2  1  0.30016483  0.90008072  0.25937143  1
  Al  Al3  1  0.42601864  0.19405814  0.99498846  1
  Co  Co4  1  0.30130480  0.90031194  0.73745971  1
  Co  Co5  1  0.51018390  0.50259367  0.74715139  1
  Co  Co6  1  0.60180381  0.79094554  0.49918970  1
  Co  Co7  1  0.89018738  0.69955162  0.25879316  1
  Re  Re8  1  0.98395797  0.99784678  0.00876196  1
  Re  Re9  1  0.19904871  0.59217981  0.50964150  1
  Re  Re10  1  0.41602482  0.20655207  0.50693022  1
  Re  Re11  1  0.88249449  0.70986613  0.74283534  1
  Fe  Fe12  1  0.70932470  0.09741512  0.26179062  1
  Fe  Fe13  1  0.78676495  0.40939959  0.48781800  1
  Fe  Fe14  1  0.60188459  0.79676335  0.00259715  1
  Fe  Fe15  1  0.80975605  0.41086539  0.00582579  1
  Ni  Ni16  1  0.99769352  0.00906012  0.49297806  1
  Ni  Ni17  1  0.10221419  0.30894135  0.25007015  1
  Ni  Ni18  1  0.69163707  0.09834522  0.74623967  1
  Ni  Ni19  1  0.51007784  0.49819051  0.24470651  1
