# generated using pymatgen
data_AlFeCoNiPd
_symmetry_space_group_name_H-M   'P 1'
_cell_length_a   5.76850983
_cell_length_b   5.72974642
_cell_length_c   7.39062722
_cell_angle_alpha   89.44380655
_cell_angle_beta   90.00297804
_cell_angle_gamma   89.93771822
_symmetry_Int_Tables_number   1
_chemical_formula_structural   AlFeCoNiPd
_chemical_formula_sum   'Al4 Fe4 Co4 Ni4 Pd4'
_cell_volume   244.26408495
_cell_formula_units_Z   4
loop_
 _symmetry_equiv_pos_site_id
 _symmetry_equiv_pos_as_xyz
  1  'x, y, z'
loop_
 _atom_site_type_symbol
 _atom_site_label
 _atom_site_symmetry_multiplicity
 _atom_site_fract_x
 _atom_site_fract_y
 _atom_site_fract_z
 _atom_site_occupancy
  Al  Al0  1  0.08330860  0.28435218  0.72985776  1
  Al  Al1  1  0.19173760  0.60082862  0.00461855  1
  Al  Al2  1  0.30385857  0.90595910  0.26398089  1
  Al  Al3  1  0.42956709  0.18952992  0.99291468  1
  Co  Co4  1  0.33315499  0.88309712  0.75219146  1
  Co  Co5  1  0.50356684  0.50133542  0.76522418  1
  Co  Co6  1  0.61383337  0.78769491  0.50113649  1
  Co  Co7  1  0.87073964  0.70573925  0.24879173  1
  Pd  Pd8  1  0.01764979  0.01670507  0.00528091  1
  Pd  Pd9  1  0.20121570  0.61003020  0.49490530  1
  Pd  Pd10  1  0.40412335  0.18911893  0.50299662  1
  Pd  Pd11  1  0.89961083  0.69459371  0.75478720  1
  Fe  Fe12  1  0.71772912  0.10268597  0.24680207  1
  Fe  Fe13  1  0.78473446  0.40434929  0.47945195  1
  Fe  Fe14  1  0.59770140  0.78145126  0.00701266  1
  Fe  Fe15  1  0.78545478  0.41734847  0.01848657  1
  Ni  Ni16  1  0.97690742  0.00795020  0.48821099  1
  Ni  Ni17  1  0.08972929  0.31412773  0.25225414  1
  Ni  Ni18  1  0.69945545  0.10561142  0.74805718  1
  Ni  Ni19  1  0.49592171  0.49749122  0.24303867  1
