# generated using pymatgen
data_MnAlFeCoNi
_symmetry_space_group_name_H-M   'P 1'
_cell_length_a   5.53820712
_cell_length_b   5.58141319
_cell_length_c   7.23777697
_cell_angle_alpha   90.31601302
_cell_angle_beta   89.21187473
_cell_angle_gamma   89.29676449
_symmetry_Int_Tables_number   1
_chemical_formula_structural   MnAlFeCoNi
_chemical_formula_sum   'Mn4 Al4 Fe4 Co4 Ni4'
_cell_volume   223.68545477
_cell_formula_units_Z   4
loop_
 _symmetry_equiv_pos_site_id
 _symmetry_equiv_pos_as_xyz
  1  'x, y, z'
loop_
 _atom_site_type_symbol
 _atom_site_label
 _atom_site_symmetry_multiplicity
 _atom_site_fract_x
 _atom_site_fract_y
 _atom_site_fract_z
 _atom_site_occupancy
  Al  Al0  1  0.07955128  0.28519801  0.74079591  1
  Al  Al1  1  0.19741457  0.61717592  0.99684611  1
  Al  Al2  1  0.29653108  0.90099172  0.26773896  1
  Al  Al3  1  0.42472551  0.18745933  0.99855101  1
  Co  Co4  1  0.29503182  0.89398598  0.74094254  1
  Co  Co5  1  0.51504190  0.50462486  0.74729166  1
  Co  Co6  1  0.60018139  0.79079682  0.50245068  1
  Co  Co7  1  0.89172162  0.70201923  0.25354878  1
  Mn  Mn8  1  0.95759444  0.01348446  0.00177675  1
  Mn  Mn9  1  0.20860844  0.58413370  0.51558926  1
  Mn  Mn10  1  0.41024138  0.22467200  0.50286916  1
  Mn  Mn11  1  0.89041999  0.70862950  0.73711874  1
  Fe  Fe12  1  0.71215390  0.09293516  0.26685871  1
  Fe  Fe13  1  0.78650470  0.40803997  0.49057095  1
  Fe  Fe14  1  0.62761675  0.78875059  0.99883258  1
  Fe  Fe15  1  0.81625030  0.40215668  0.00248349  1
  Ni  Ni16  1  0.99711344  0.99901680  0.49959798  1
  Ni  Ni17  1  0.10110764  0.30386296  0.25270738  1
  Ni  Ni18  1  0.68754002  0.09309121  0.73884982  1
  Ni  Ni19  1  0.50464981  0.49897511  0.24457952  1
