# generated using pymatgen
data_AlFeCoNiIr
_symmetry_space_group_name_H-M   'P 1'
_cell_length_a   5.74059630
_cell_length_b   5.84647167
_cell_length_c   7.35383677
_cell_angle_alpha   88.96452959
_cell_angle_beta   89.99830602
_cell_angle_gamma   89.15620903
_symmetry_Int_Tables_number   1
_chemical_formula_structural   AlFeCoNiIr
_chemical_formula_sum   'Al4 Fe4 Co4 Ni4 Ir4'
_cell_volume   246.74411676
_cell_formula_units_Z   4
loop_
 _symmetry_equiv_pos_site_id
 _symmetry_equiv_pos_as_xyz
  1  'x, y, z'
loop_
 _atom_site_type_symbol
 _atom_site_label
 _atom_site_symmetry_multiplicity
 _atom_site_fract_x
 _atom_site_fract_y
 _atom_site_fract_z
 _atom_site_occupancy
  Al  Al0  1  0.08352312  0.28570682  0.73114993  1
  Al  Al1  1  0.19998038  0.60702150  0.00304620  1
  Al  Al2  1  0.29254126  0.90682937  0.26844633  1
  Al  Al3  1  0.41557970  0.19550305  0.99402223  1
  Co  Co4  1  0.30954551  0.88852291  0.73685957  1
  Co  Co5  1  0.51041651  0.49774291  0.75146398  1
  Co  Co6  1  0.60666729  0.79058777  0.50406807  1
  Co  Co7  1  0.87473217  0.69584063  0.25619996  1
  Ir  Ir8  1  0.01299796  0.01039126  0.00508085  1
  Ir  Ir9  1  0.19873639  0.59980886  0.49644975  1
  Ir  Ir10  1  0.41598939  0.19799384  0.50015478  1
  Ir  Ir11  1  0.89840548  0.70016701  0.75222768  1
  Fe  Fe12  1  0.71219759  0.09880932  0.25615584  1
  Fe  Fe13  1  0.78621696  0.40830166  0.49216511  1
  Fe  Fe14  1  0.60449340  0.79919177  0.00169134  1
  Fe  Fe15  1  0.79696723  0.40303847  0.00681045  1
  Ni  Ni16  1  0.98778370  0.00298910  0.49852696  1
  Ni  Ni17  1  0.09560710  0.31467551  0.25381001  1
  Ni  Ni18  1  0.69672080  0.09684838  0.74800121  1
  Ni  Ni19  1  0.50089808  0.50002988  0.24366975  1
