# generated using pymatgen
data_AlFeCoCuNi
_symmetry_space_group_name_H-M   'P 1'
_cell_length_a   5.65978799
_cell_length_b   5.77257526
_cell_length_c   7.22540571
_cell_angle_alpha   89.77638675
_cell_angle_beta   89.77642371
_cell_angle_gamma   88.75004572
_symmetry_Int_Tables_number   1
_chemical_formula_structural   AlFeCoCuNi
_chemical_formula_sum   'Al4 Fe4 Co4 Cu4 Ni4'
_cell_volume   236.00552856
_cell_formula_units_Z   4
loop_
 _symmetry_equiv_pos_site_id
 _symmetry_equiv_pos_as_xyz
  1  'x, y, z'
loop_
 _atom_site_type_symbol
 _atom_site_label
 _atom_site_symmetry_multiplicity
 _atom_site_fract_x
 _atom_site_fract_y
 _atom_site_fract_z
 _atom_site_occupancy
  Al  Al0  1  0.08938337  0.28487635  0.73582624  1
  Al  Al1  1  0.19532981  0.60817979  0.00083027  1
  Al  Al2  1  0.29523471  0.89995928  0.27388297  1
  Al  Al3  1  0.41554533  0.19416179  0.99773247  1
  Co  Co4  1  0.31981822  0.89164033  0.74542444  1
  Co  Co5  1  0.50417676  0.50101395  0.75696121  1
  Co  Co6  1  0.60640574  0.80009855  0.50600106  1
  Co  Co7  1  0.88778571  0.69842771  0.25017847  1
  Cu  Cu8  1  0.00178476  0.00446497  0.99830588  1
  Cu  Cu9  1  0.20040253  0.59520873  0.50174355  1
  Cu  Cu10  1  0.40358214  0.20316540  0.50138728  1
  Cu  Cu11  1  0.90344935  0.70402031  0.74726040  1
  Fe  Fe12  1  0.70927177  0.08979295  0.25250363  1
  Fe  Fe13  1  0.78606688  0.41163850  0.48894091  1
  Fe  Fe14  1  0.60223205  0.79900461  0.99871454  1
  Fe  Fe15  1  0.79508761  0.40972153  0.00562990  1
  Ni  Ni16  1  0.98976526  0.99872350  0.49900120  1
  Ni  Ni17  1  0.09718469  0.29949248  0.24806535  1
  Ni  Ni18  1  0.69972513  0.10411958  0.74529671  1
  Ni  Ni19  1  0.49776815  0.50228971  0.24631352  1
