# generated using pymatgen
data_AlFeCoNiAu
_symmetry_space_group_name_H-M   'P 1'
_cell_length_a   5.85291767
_cell_length_b   5.87872535
_cell_length_c   7.56041175
_cell_angle_alpha   89.85130663
_cell_angle_beta   89.90193235
_cell_angle_gamma   89.64074227
_symmetry_Int_Tables_number   1
_chemical_formula_structural   AlFeCoNiAu
_chemical_formula_sum   'Al4 Fe4 Co4 Ni4 Au4'
_cell_volume   260.12998159
_cell_formula_units_Z   4
loop_
 _symmetry_equiv_pos_site_id
 _symmetry_equiv_pos_as_xyz
  1  'x, y, z'
loop_
 _atom_site_type_symbol
 _atom_site_label
 _atom_site_symmetry_multiplicity
 _atom_site_fract_x
 _atom_site_fract_y
 _atom_site_fract_z
 _atom_site_occupancy
  Al  Al0  1  0.08474192  0.28384829  0.73674608  1
  Al  Al1  1  0.18906482  0.59078516  0.00594481  1
  Al  Al2  1  0.30155664  0.90562542  0.26221645  1
  Al  Al3  1  0.43292913  0.19657097  0.99515436  1
  Co  Co4  1  0.34619705  0.88156276  0.76513241  1
  Co  Co5  1  0.48607140  0.49123112  0.77639143  1
  Co  Co6  1  0.62061396  0.79150763  0.48388879  1
  Co  Co7  1  0.87676471  0.69216947  0.25122030  1
  Au  Au8  1  0.01541264  0.01092365  0.00582805  1
  Au  Au9  1  0.20865473  0.61493898  0.49697037  1
  Au  Au10  1  0.40328910  0.18682458  0.50618455  1
  Au  Au11  1  0.88414446  0.69759903  0.74996944  1
  Fe  Fe12  1  0.70767963  0.10336936  0.24367097  1
  Fe  Fe13  1  0.78854494  0.41202637  0.47842375  1
  Fe  Fe14  1  0.59290752  0.78949091  0.00911709  1
  Fe  Fe15  1  0.78914765  0.41408903  0.01324909  1
  Ni  Ni16  1  0.97406315  0.01345204  0.48611965  1
  Ni  Ni17  1  0.09445411  0.31014830  0.24866493  1
  Ni  Ni18  1  0.70568377  0.11351725  0.74767483  1
  Ni  Ni19  1  0.49807864  0.50031966  0.23743264  1
