# generated using pymatgen
data_AlFeCoNiW
_symmetry_space_group_name_H-M   'P 1'
_cell_length_a   5.67210636
_cell_length_b   5.80906491
_cell_length_c   7.55680994
_cell_angle_alpha   90.17779083
_cell_angle_beta   89.28121477
_cell_angle_gamma   89.50375832
_symmetry_Int_Tables_number   1
_chemical_formula_structural   AlFeCoNiW
_chemical_formula_sum   'Al4 Fe4 Co4 Ni4 W4'
_cell_volume   248.96390613
_cell_formula_units_Z   4
loop_
 _symmetry_equiv_pos_site_id
 _symmetry_equiv_pos_as_xyz
  1  'x, y, z'
loop_
 _atom_site_type_symbol
 _atom_site_label
 _atom_site_symmetry_multiplicity
 _atom_site_fract_x
 _atom_site_fract_y
 _atom_site_fract_z
 _atom_site_occupancy
  Al  Al0  1  0.07967333  0.28368060  0.74117120  1
  Al  Al1  1  0.20086150  0.59032970  0.00565496  1
  Al  Al2  1  0.30743850  0.90256766  0.24540346  1
  Al  Al3  1  0.44676337  0.19750493  0.00154246  1
  Co  Co4  1  0.29698209  0.89559675  0.75351147  1
  Co  Co5  1  0.48728748  0.49290231  0.74427463  1
  Co  Co6  1  0.60145014  0.79210470  0.49236270  1
  Co  Co7  1  0.89670908  0.70284252  0.25236877  1
  W  W8  1  0.97290618  0.01390268  0.01010485  1
  W  W9  1  0.19796252  0.61053472  0.50222294  1
  W  W10  1  0.42107822  0.19407620  0.49981027  1
  W  W11  1  0.86440248  0.70525545  0.74643805  1
  Fe  Fe12  1  0.71076043  0.09141229  0.26807193  1
  Fe  Fe13  1  0.79943733  0.40676715  0.49144245  1
  Fe  Fe14  1  0.59566541  0.78857532  0.00252107  1
  Fe  Fe15  1  0.81661011  0.41310174  0.00057467  1
  Ni  Ni16  1  0.00203593  0.00979603  0.49533605  1
  Ni  Ni17  1  0.09774986  0.30605594  0.25178589  1
  Ni  Ni18  1  0.69120174  0.10700950  0.74606238  1
  Ni  Ni19  1  0.51302428  0.49598380  0.24933981  1
