# generated using pymatgen
data_AlFeCoTcNi
_symmetry_space_group_name_H-M   'P 1'
_cell_length_a   5.78108806
_cell_length_b   5.81331333
_cell_length_c   7.29518212
_cell_angle_alpha   89.91521554
_cell_angle_beta   89.44342090
_cell_angle_gamma   89.62889659
_symmetry_Int_Tables_number   1
_chemical_formula_structural   AlFeCoTcNi
_chemical_formula_sum   'Al4 Fe4 Co4 Tc4 Ni4'
_cell_volume   245.15424494
_cell_formula_units_Z   4
loop_
 _symmetry_equiv_pos_site_id
 _symmetry_equiv_pos_as_xyz
  1  'x, y, z'
loop_
 _atom_site_type_symbol
 _atom_site_label
 _atom_site_symmetry_multiplicity
 _atom_site_fract_x
 _atom_site_fract_y
 _atom_site_fract_z
 _atom_site_occupancy
  Al  Al0  1  0.07285132  0.27604602  0.74356830  1
  Al  Al1  1  0.20778910  0.60167993  0.99754442  1
  Al  Al2  1  0.29830377  0.89867461  0.26444614  1
  Al  Al3  1  0.41909346  0.19347075  0.99410502  1
  Co  Co4  1  0.30560732  0.89883517  0.73910610  1
  Co  Co5  1  0.51423607  0.50226621  0.75264756  1
  Co  Co6  1  0.60501731  0.79475700  0.50121350  1
  Co  Co7  1  0.89096386  0.69617985  0.25252494  1
  Tc  Tc8  1  0.98477769  0.99594441  0.01067121  1
  Tc  Tc9  1  0.20103109  0.58951982  0.51190907  1
  Tc  Tc10  1  0.40989906  0.21004633  0.50895296  1
  Tc  Tc11  1  0.89084174  0.71349272  0.74287445  1
  Fe  Fe12  1  0.70075416  0.09917516  0.25945163  1
  Fe  Fe13  1  0.79225960  0.40545851  0.48569856  1
  Fe  Fe14  1  0.60154531  0.80068908  0.00343810  1
  Fe  Fe15  1  0.80457389  0.40745874  0.00841515  1
  Ni  Ni16  1  0.99487552  0.00701542  0.49070318  1
  Ni  Ni17  1  0.10668369  0.31014238  0.24507644  1
  Ni  Ni18  1  0.69320060  0.09904558  0.74532830  1
  Ni  Ni19  1  0.50569546  0.50010232  0.24232495  1
