# generated using pymatgen
data_ScAlFeCoNi
_symmetry_space_group_name_H-M   'P 1'
_cell_length_a   5.95256493
_cell_length_b   5.49334788
_cell_length_c   8.60343535
_cell_angle_alpha   89.09332993
_cell_angle_beta   95.03938112
_cell_angle_gamma   93.64459395
_symmetry_Int_Tables_number   1
_chemical_formula_structural   ScAlFeCoNi
_chemical_formula_sum   'Sc4 Al4 Fe4 Co4 Ni4'
_cell_volume   279.65905400
_cell_formula_units_Z   4
loop_
 _symmetry_equiv_pos_site_id
 _symmetry_equiv_pos_as_xyz
  1  'x, y, z'
loop_
 _atom_site_type_symbol
 _atom_site_label
 _atom_site_symmetry_multiplicity
 _atom_site_fract_x
 _atom_site_fract_y
 _atom_site_fract_z
 _atom_site_occupancy
  Al  Al0  1  0.02885685  0.20507597  0.68854435  1
  Al  Al1  1  0.17424423  0.58272453  0.00900202  1
  Al  Al2  1  0.32033890  0.89115356  0.25681407  1
  Al  Al3  1  0.43263138  0.20509992  0.02982605  1
  Co  Co4  1  0.30976362  0.91390899  0.80183076  1
  Co  Co5  1  0.37482303  0.45820443  0.80067566  1
  Co  Co6  1  0.65970736  0.77924905  0.43361399  1
  Co  Co7  1  0.91731231  0.71098866  0.23083314  1
  Sc  Sc8  1  0.98331361  0.03322709  0.99836335  1
  Sc  Sc9  1  0.24330100  0.64041940  0.53621156  1
  Sc  Sc10  1  0.49445194  0.17201689  0.53769759  1
  Sc  Sc11  1  0.77846880  0.67858158  0.72227127  1
  Fe  Fe12  1  0.72642548  0.09583801  0.24177319  1
  Fe  Fe13  1  0.85416673  0.41095928  0.42479957  1
  Fe  Fe14  1  0.56624464  0.78935498  0.01959547  1
  Fe  Fe15  1  0.78139405  0.45841495  0.02644752  1
  Ni  Ni16  1  0.03134965  0.01648922  0.44093985  1
  Ni  Ni17  1  0.13369412  0.31338719  0.24031406  1
  Ni  Ni18  1  0.66756186  0.15481312  0.81396726  1
  Ni  Ni19  1  0.52195045  0.49009318  0.24647930  1
