# generated using pymatgen
data_Ti8C7
_symmetry_space_group_name_H-M   'P 1'
_cell_length_a   6.85231115
_cell_length_b   13.35957014
_cell_length_c   15.93904651
_cell_angle_alpha   66.58183924
_cell_angle_beta   79.97855293
_cell_angle_gamma   78.24061930
_symmetry_Int_Tables_number   1
_chemical_formula_structural   Ti8C7
_chemical_formula_sum   'Ti64 C56'
_cell_volume   1303.78629223
_cell_formula_units_Z   8
loop_
 _symmetry_equiv_pos_site_id
 _symmetry_equiv_pos_as_xyz
  1  'x, y, z'
loop_
 _atom_site_type_symbol
 _atom_site_label
 _atom_site_symmetry_multiplicity
 _atom_site_fract_x
 _atom_site_fract_y
 _atom_site_fract_z
 _atom_site_occupancy
  C  C0  1  0.31298602  0.88889226  0.82840707  1
  C  C1  1  0.56285928  0.07992614  0.76573397  1
  C  C2  1  0.56031691  0.95170433  0.64148806  1
  C  C3  1  0.43729476  0.54411728  0.85944335  1
  C  C4  1  0.93515492  0.04794668  0.85941045  1
  C  C5  1  0.19267641  0.23775561  0.79888384  1
  C  C6  1  0.94081286  0.92015394  0.73436660  1
  C  C7  1  0.18712754  0.10949137  0.67106874  1
  C  C8  1  0.43702878  0.29791699  0.61003087  1
  C  C9  1  0.18793739  0.98302459  0.54698920  1
  C  C10  1  0.43647394  0.17267720  0.48355502  1
  C  C11  1  0.18714741  0.85998900  0.42229307  1
  C  C12  1  0.43482339  0.04817798  0.35929014  1
  C  C13  1  0.43734672  0.92177384  0.23443163  1
  C  C14  1  0.06389376  0.70211653  0.89077643  1
  C  C15  1  0.81004465  0.39017046  0.82868259  1
  C  C16  1  0.07275761  0.57647436  0.76435349  1
  C  C17  1  0.80640951  0.26670683  0.70576463  1
  C  C18  1  0.06597042  0.45449581  0.63993067  1
  C  C19  1  0.55792496  0.82618738  0.51800253  1
  C  C20  1  0.81367449  0.14114341  0.57675482  1
  C  C21  1  0.06388829  0.32866671  0.51468323  1
  C  C22  1  0.55630299  0.70069107  0.39294486  1
  C  C23  1  0.81380445  0.01679285  0.45266791  1
  C  C24  1  0.31016511  0.39005994  0.32950868  1
  C  C25  1  0.56026219  0.57781380  0.26530294  1
  C  C26  1  0.81143912  0.89038472  0.32858440  1
  C  C27  1  0.06242968  0.07901938  0.26627672  1
  C  C28  1  0.31103281  0.26579880  0.20317241  1
  C  C29  1  0.56231188  0.45465761  0.13898507  1
  C  C30  1  0.06257026  0.95297842  0.14095306  1
  C  C31  1  0.31447974  0.14349888  0.07443939  1
  C  C32  1  0.56192239  0.32827861  0.01354124  1
  C  C33  1  0.31306464  0.01578751  0.95319297  1
  C  C34  1  0.68686836  0.73439831  0.79700268  1
  C  C35  1  0.68339510  0.60978512  0.67157493  1
  C  C36  1  0.94063238  0.79579246  0.60981129  1
  C  C37  1  0.68174988  0.48533064  0.54701280  1
  C  C38  1  0.93985238  0.67099062  0.48502965  1
  C  C39  1  0.68676271  0.35963866  0.42193924  1
  C  C40  1  0.93850354  0.54604053  0.35991846  1
  C  C41  1  0.18773954  0.73301207  0.29876581  1
  C  C42  1  0.68643572  0.23439498  0.29738724  1
  C  C43  1  0.93798711  0.42006956  0.23583411  1
  C  C44  1  0.18855804  0.60908845  0.17212068  1
  C  C45  1  0.43765527  0.79577610  0.10850491  1
  C  C46  1  0.68780514  0.10977960  0.17055049  1
  C  C47  1  0.93953378  0.29710279  0.10967233  1
  C  C48  1  0.19022089  0.48530918  0.04517417  1
  C  C49  1  0.68744156  0.98561536  0.04560270  1
  C  C50  1  0.93957209  0.17283969  0.98348313  1
  C  C51  1  0.68525551  0.85935473  0.92245350  1
  C  C52  1  0.81167811  0.76550669  0.20346405  1
  C  C53  1  0.81272262  0.64065850  0.07768334  1
  C  C54  1  0.06554884  0.82639117  0.01561129  1
  C  C55  1  0.81327478  0.51567194  0.95297847  1
  Ti  Ti56  1  0.86541104  0.34216729  0.96990485  1
  Ti  Ti57  1  0.63103194  0.02268977  0.90738962  1
  Ti  Ti58  1  0.88868752  0.22030878  0.84110149  1
  Ti  Ti59  1  0.87359711  0.09384035  0.72097322  1
  Ti  Ti60  1  0.75954359  0.68770158  0.93572876  1
  Ti  Ti61  1  0.24296245  0.17948618  0.94023761  1
  Ti  Ti62  1  0.51031314  0.37879933  0.87639880  1
  Ti  Ti63  1  0.75073623  0.56284615  0.81358969  1
  Ti  Ti64  1  0.25123809  0.06217281  0.81304847  1
  Ti  Ti65  1  0.50005020  0.24415353  0.74517551  1
  Ti  Ti66  1  0.75811953  0.43852042  0.68561531  1
  Ti  Ti67  1  0.50225657  0.12286196  0.62553742  1
  Ti  Ti68  1  0.75069522  0.31221812  0.56070411  1
  Ti  Ti69  1  0.49853977  0.99909725  0.50044413  1
  Ti  Ti70  1  0.73990527  0.18559542  0.44001253  1
  Ti  Ti71  1  0.75330905  0.06172611  0.31364723  1
  Ti  Ti72  1  0.37051832  0.85019791  0.96853387  1
  Ti  Ti73  1  0.12401494  0.53970446  0.90571725  1
  Ti  Ti74  1  0.37818838  0.71960712  0.84443201  1
  Ti  Ti75  1  0.62307739  0.90426517  0.78099979  1
  Ti  Ti76  1  0.11336723  0.41016917  0.77555017  1
  Ti  Ti77  1  0.37793127  0.59344935  0.72505376  1
  Ti  Ti78  1  0.63621965  0.78135386  0.65355055  1
  Ti  Ti79  1  0.87531107  0.97040225  0.59342472  1
  Ti  Ti80  1  0.12472916  0.28230288  0.65461255  1
  Ti  Ti81  1  0.37712071  0.46155658  0.59240245  1
  Ti  Ti82  1  0.63303718  0.65656207  0.53062579  1
  Ti  Ti83  1  0.87285900  0.84430521  0.46803402  1
  Ti  Ti84  1  0.12474025  0.15421963  0.53768363  1
  Ti  Ti85  1  0.37483514  0.33557054  0.46799733  1
  Ti  Ti86  1  0.63493943  0.53328070  0.40530189  1
  Ti  Ti87  1  0.87591617  0.71982519  0.34300207  1
  Ti  Ti88  1  0.12580929  0.02633093  0.40577868  1
  Ti  Ti89  1  0.38851184  0.21859019  0.34046681  1
  Ti  Ti90  1  0.62889553  0.40568450  0.28287121  1
  Ti  Ti91  1  0.87416674  0.59499132  0.21835708  1
  Ti  Ti92  1  0.37474094  0.09239052  0.22155811  1
  Ti  Ti93  1  0.62601201  0.28049300  0.15730290  1
  Ti  Ti94  1  0.87188197  0.46888781  0.09221155  1
  Ti  Ti95  1  0.62670828  0.15222416  0.03896633  1
  Ti  Ti96  1  0.00449787  0.87429388  0.87426449  1
  Ti  Ti97  1  0.98795052  0.75075704  0.75023046  1
  Ti  Ti98  1  0.24744823  0.94464218  0.68764238  1
  Ti  Ti99  1  0.99187336  0.62547851  0.62601563  1
  Ti  Ti100  1  0.24407474  0.82173784  0.55686961  1
  Ti  Ti101  1  0.98879598  0.50066584  0.50281018  1
  Ti  Ti102  1  0.24271694  0.69693443  0.43056255  1
  Ti  Ti103  1  0.50248860  0.87491234  0.37459566  1
  Ti  Ti104  1  0.99983270  0.38339580  0.37410441  1
  Ti  Ti105  1  0.24828335  0.56549424  0.30619629  1
  Ti  Ti106  1  0.50102898  0.75070994  0.25011261  1
  Ti  Ti107  1  0.75081881  0.93601685  0.18858477  1
  Ti  Ti108  1  0.99627462  0.25259404  0.24390809  1
  Ti  Ti109  1  0.24958784  0.43729960  0.18743382  1
  Ti  Ti110  1  0.50310473  0.62248837  0.13089219  1
  Ti  Ti111  1  0.74667712  0.81153694  0.06303649  1
  Ti  Ti112  1  0.00090418  0.12439277  0.12498221  1
  Ti  Ti113  1  0.25294975  0.30884748  0.06856536  1
  Ti  Ti114  1  0.50026477  0.49292261  0.00176175  1
  Ti  Ti115  1  0.99506268  0.99977062  0.00005782  1
  Ti  Ti116  1  0.12459508  0.90808677  0.27862556  1
  Ti  Ti117  1  0.12452355  0.78252129  0.15411312  1
  Ti  Ti118  1  0.37597443  0.96867793  0.09456980  1
  Ti  Ti119  1  0.11126678  0.65617994  0.03423469  1
