# generated using pymatgen
data_Ti4C3
_symmetry_space_group_name_H-M   'P 1'
_cell_length_a   6.15023763
_cell_length_b   6.84698497
_cell_length_c   8.08848273
_cell_angle_alpha   85.38417212
_cell_angle_beta   78.91648958
_cell_angle_gamma   76.84901132
_symmetry_Int_Tables_number   1
_chemical_formula_structural   Ti4C3
_chemical_formula_sum   'Ti16 C12'
_cell_volume   325.25079137
_cell_formula_units_Z   4
loop_
 _symmetry_equiv_pos_site_id
 _symmetry_equiv_pos_as_xyz
  1  'x, y, z'
loop_
 _atom_site_type_symbol
 _atom_site_label
 _atom_site_symmetry_multiplicity
 _atom_site_fract_x
 _atom_site_fract_y
 _atom_site_fract_z
 _atom_site_occupancy
  C  C0  1  0.09166253  0.68995635  0.93617905  1
  C  C1  1  0.59683686  0.69073543  0.93189524  1
  C  C2  1  0.96774310  0.43366459  0.68499660  1
  C  C3  1  0.47379703  0.42980303  0.68444154  1
  C  C4  1  0.28671337  0.06101466  0.80919431  1
  C  C5  1  0.15083335  0.81844748  0.56258451  1
  C  C6  1  0.03086338  0.56115570  0.31422202  1
  C  C7  1  0.53200199  0.55955789  0.31467516  1
  C  C8  1  0.90545405  0.31038998  0.06253087  1
  C  C9  1  0.40871779  0.31042936  0.06210731  1
  C  C10  1  0.21679870  0.94065951  0.19142737  1
  C  C11  1  0.71428316  0.94304444  0.19821452  1
  Ti  Ti12  1  0.68425630  0.39063030  0.87147179  1
  Ti  Ti13  1  0.18876886  0.37275348  0.87233810  1
  Ti  Ti14  1  0.55075194  0.13071936  0.63111311  1
  Ti  Ti15  1  0.07149005  0.11821795  0.63446077  1
  Ti  Ti16  1  0.88718255  0.73723574  0.75584421  1
  Ti  Ti17  1  0.36281094  0.74798187  0.75824488  1
  Ti  Ti18  1  0.75153402  0.49596267  0.49852031  1
  Ti  Ti19  1  0.24704035  0.51093485  0.50179702  1
  Ti  Ti20  1  0.62768439  0.25592636  0.23097221  1
  Ti  Ti21  1  0.12699418  0.26023791  0.23552652  1
  Ti  Ti22  1  0.49037058  0.99479724  0.00590831  1
  Ti  Ti23  1  0.00756710  0.99757493  0.00904637  1
  Ti  Ti24  1  0.94775584  0.86967743  0.37068459  1
  Ti  Ti25  1  0.43189890  0.86633099  0.36773738  1
  Ti  Ti26  1  0.81236990  0.62821008  0.12685777  1
  Ti  Ti27  1  0.31113401  0.62355128  0.12664454  1
