# generated using pymatgen
data_Ti8C5
_symmetry_space_group_name_H-M   'P 1'
_cell_length_a   6.84720716
_cell_length_b   9.64286672
_cell_length_c   19.74167215
_cell_angle_alpha   90.14091008
_cell_angle_beta   93.95988684
_cell_angle_gamma   98.10589462
_symmetry_Int_Tables_number   1
_chemical_formula_structural   Ti8C5
_chemical_formula_sum   'Ti64 C40'
_cell_volume   1287.27579796
_cell_formula_units_Z   8
loop_
 _symmetry_equiv_pos_site_id
 _symmetry_equiv_pos_as_xyz
  1  'x, y, z'
loop_
 _atom_site_type_symbol
 _atom_site_label
 _atom_site_symmetry_multiplicity
 _atom_site_fract_x
 _atom_site_fract_y
 _atom_site_fract_z
 _atom_site_occupancy
  C  C0  1  0.65056575  0.26626333  0.01646422  1
  C  C1  1  0.80920851  0.27524682  0.27805376  1
  C  C2  1  0.91031855  0.38899581  0.13814609  1
  C  C3  1  0.06360872  0.40702347  0.40576996  1
  C  C4  1  0.78047914  0.57543102  0.32743322  1
  C  C5  1  0.53121270  0.45251284  0.20074942  1
  C  C6  1  0.87536997  0.69016874  0.18462355  1
  C  C7  1  0.25778678  0.62528019  0.12071891  1
  C  C8  1  0.96296624  0.79254869  0.04605338  1
  C  C9  1  0.74886304  0.37699044  0.87737085  1
  C  C10  1  0.84635068  0.48423173  0.73710488  1
  C  C11  1  0.21313574  0.42132950  0.67104705  1
  C  C12  1  0.59814424  0.35784223  0.60775164  1
  C  C13  1  0.30975067  0.52999131  0.53136164  1
  C  C14  1  0.65870968  0.76342997  0.51639414  1
  C  C15  1  0.02910480  0.69890877  0.45331002  1
  C  C16  1  0.40696516  0.63589863  0.38863957  1
  C  C17  1  0.74833806  0.87591233  0.37344985  1
  C  C18  1  0.12730115  0.81382264  0.30948479  1
  C  C19  1  0.50159566  0.75362222  0.24790629  1
  C  C20  1  0.31376505  0.02957180  0.03444050  1
  C  C21  1  0.45985150  0.54851961  0.80174135  1
  C  C22  1  0.80946066  0.78196672  0.78439021  1
  C  C23  1  0.18594010  0.71831160  0.72056016  1
  C  C24  1  0.56339329  0.65643956  0.65682469  1
  C  C25  1  0.90573953  0.89387965  0.64097735  1
  C  C26  1  0.28188554  0.83210071  0.57897311  1
  C  C27  1  0.99880821  0.00308820  0.50166878  1
  C  C28  1  0.37664997  0.93992601  0.43796766  1
  C  C29  1  0.71602872  0.17567954  0.42100896  1
  C  C30  1  0.09761046  0.11076945  0.35799862  1
  C  C31  1  0.19114103  0.21482827  0.21705833  1
  C  C32  1  0.68213718  0.96737393  0.96864412  1
  C  C33  1  0.06762933  0.90352254  0.90679502  1
  C  C34  1  0.15746034  0.01887718  0.76796837  1
  C  C35  1  0.52927648  0.95637481  0.70519011  1
  C  C36  1  0.87557979  0.18832679  0.68925924  1
  C  C37  1  0.34623891  0.23380459  0.48528639  1
  C  C38  1  0.03596402  0.20783807  0.95353281  1
  C  C39  1  0.49828695  0.24811087  0.75252455  1
  Ti  Ti40  1  0.00267401  0.99683018  0.99731917  1
  Ti  Ti41  1  0.15899864  0.01943447  0.26738202  1
  Ti  Ti42  1  0.25174717  0.11506415  0.12776732  1
  Ti  Ti43  1  0.61733517  0.06250385  0.05899102  1
  Ti  Ti44  1  0.30145670  0.02704344  0.52756351  1
  Ti  Ti45  1  0.03279921  0.19986974  0.44991355  1
  Ti  Ti46  1  0.40580570  0.13701914  0.39589731  1
  Ti  Ti47  1  0.78729422  0.08061213  0.33086584  1
  Ti  Ti48  1  0.11656281  0.30349900  0.31038010  1
  Ti  Ti49  1  0.49819749  0.25536554  0.24484137  1
  Ti  Ti50  1  0.88977908  0.19314143  0.18644061  1
  Ti  Ti51  1  0.22369472  0.41784528  0.16831120  1
  Ti  Ti52  1  0.60503482  0.36326812  0.10774676  1
  Ti  Ti53  1  0.95951437  0.29805770  0.04509086  1
  Ti  Ti54  1  0.31900296  0.53824481  0.02615298  1
  Ti  Ti55  1  0.09635393  0.10478245  0.86355195  1
  Ti  Ti56  1  0.45779360  0.04956792  0.79195581  1
  Ti  Ti57  1  0.18401650  0.21995861  0.71997462  1
  Ti  Ti58  1  0.57482833  0.16138066  0.66164832  1
  Ti  Ti59  1  0.93563526  0.08864213  0.59598690  1
  Ti  Ti60  1  0.29619550  0.33566604  0.57870826  1
  Ti  Ti61  1  0.64757858  0.26841086  0.51401272  1
  Ti  Ti62  1  0.01119402  0.50545162  0.49733585  1
  Ti  Ti63  1  0.36020044  0.43977394  0.43857259  1
  Ti  Ti64  1  0.76664492  0.37145118  0.37070978  1
  Ti  Ti65  1  0.09025188  0.61287893  0.36188637  1
  Ti  Ti66  1  0.48147953  0.55300518  0.29578130  1
  Ti  Ti67  1  0.83309615  0.48185737  0.23074567  1
  Ti  Ti68  1  0.18989005  0.72146201  0.21767735  1
  Ti  Ti69  1  0.55649485  0.65353710  0.15941275  1
  Ti  Ti70  1  0.95288548  0.59639105  0.09689347  1
  Ti  Ti71  1  0.27104442  0.82656853  0.07582221  1
  Ti  Ti72  1  0.66420785  0.76297152  0.00987993  1
  Ti  Ti73  1  0.33590874  0.23098752  0.99154037  1
  Ti  Ti74  1  0.72744889  0.17699177  0.92683081  1
  Ti  Ti75  1  0.05564745  0.40647254  0.91018001  1
  Ti  Ti76  1  0.44716424  0.34824551  0.84311040  1
  Ti  Ti77  1  0.80244145  0.28931204  0.78213788  1
  Ti  Ti78  1  0.16014194  0.52176633  0.76128408  1
  Ti  Ti79  1  0.52847728  0.45251816  0.70363854  1
  Ti  Ti80  1  0.90244695  0.38532682  0.64590416  1
  Ti  Ti81  1  0.25975993  0.62521995  0.62613292  1
  Ti  Ti82  1  0.61636932  0.56450854  0.56519913  1
  Ti  Ti83  1  0.34674428  0.73669424  0.48548820  1
  Ti  Ti84  1  0.71911571  0.67844992  0.42071027  1
  Ti  Ti85  1  0.06292389  0.90561631  0.40413398  1
  Ti  Ti86  1  0.43381728  0.83361356  0.34343983  1
  Ti  Ti87  1  0.81495743  0.77379374  0.28153419  1
  Ti  Ti88  1  0.54193233  0.95236547  0.20106445  1
  Ti  Ti89  1  0.90011891  0.88437040  0.13715602  1
  Ti  Ti90  1  0.67595541  0.46505310  0.96924349  1
  Ti  Ti91  1  0.03351990  0.70384015  0.95390582  1
  Ti  Ti92  1  0.39728201  0.63653243  0.89570614  1
  Ti  Ti93  1  0.76613538  0.57485975  0.82642008  1
  Ti  Ti94  1  0.11257406  0.82044418  0.81201138  1
  Ti  Ti95  1  0.50218485  0.74682369  0.74883545  1
  Ti  Ti96  1  0.87159417  0.68984036  0.69270210  1
  Ti  Ti97  1  0.21775512  0.91096073  0.67383445  1
  Ti  Ti98  1  0.59284894  0.85207193  0.61131785  1
  Ti  Ti99  1  0.96798967  0.80569935  0.54525629  1
  Ti  Ti100  1  0.69021659  0.96653162  0.46410991  1
  Ti  Ti101  1  0.37506297  0.93690567  0.94062262  1
  Ti  Ti102  1  0.75842130  0.87760810  0.87746896  1
  Ti  Ti103  1  0.84604189  0.98355693  0.73180660  1
