# generated using pymatgen
data_Ti2C
_symmetry_space_group_name_H-M   'P 1'
_cell_length_a   6.80131326
_cell_length_b   6.79949008
_cell_length_c   8.56795206
_cell_angle_alpha   90.10857301
_cell_angle_beta   90.08129623
_cell_angle_gamma   126.79967804
_symmetry_Int_Tables_number   1
_chemical_formula_structural   Ti2C
_chemical_formula_sum   'Ti16 C8'
_cell_volume   317.27206172
_cell_formula_units_Z   8
loop_
 _symmetry_equiv_pos_site_id
 _symmetry_equiv_pos_as_xyz
  1  'x, y, z'
loop_
 _atom_site_type_symbol
 _atom_site_label
 _atom_site_symmetry_multiplicity
 _atom_site_fract_x
 _atom_site_fract_y
 _atom_site_fract_z
 _atom_site_occupancy
  C  C0  1  0.49806392  0.50699499  0.24697868  1
  C  C1  1  0.37526468  0.11794234  0.49630423  1
  C  C2  1  0.87653753  0.62650533  0.49521649  1
  C  C3  1  0.11724891  0.37048464  0.49323829  1
  C  C4  1  0.99846247  0.99849467  0.75478351  1
  C  C5  1  0.49973532  0.50705766  0.75369577  1
  C  C6  1  0.37693608  0.11800501  0.00302132  1
  C  C7  1  0.75775109  0.25451536  0.75676171  1
  Ti  Ti8  1  0.74780433  0.24614928  0.00390383  1
  Ti  Ti9  1  0.49396475  0.48866489  0.00151506  1
  Ti  Ti10  1  0.01389497  0.00244066  0.00075471  1
  Ti  Ti11  1  0.86110503  0.62255934  0.24924529  1
  Ti  Ti12  1  0.38103525  0.13633511  0.24848494  1
  Ti  Ti13  1  0.75099283  0.25632515  0.50894780  1
  Ti  Ti14  1  0.23816030  0.74820409  0.01553742  1
  Ti  Ti15  1  0.63683970  0.87679591  0.23446258  1
  Ti  Ti16  1  0.12719567  0.37885072  0.24609617  1
  Ti  Ti17  1  0.49282479  0.48828011  0.49598062  1
  Ti  Ti18  1  0.01280760  0.00178088  0.50823946  1
  Ti  Ti19  1  0.86219240  0.62321912  0.74176054  1
  Ti  Ti20  1  0.38217521  0.13671989  0.75401938  1
  Ti  Ti21  1  0.24082040  0.74565014  0.49441817  1
  Ti  Ti22  1  0.63417960  0.87934986  0.75558183  1
  Ti  Ti23  1  0.12400717  0.36867485  0.74105220  1
