# generated using pymatgen
data_Ti8C3
_symmetry_space_group_name_H-M   'P 1'
_cell_length_a   6.79090382
_cell_length_b   9.56185216
_cell_length_c   19.37481062
_cell_angle_alpha   90.45719884
_cell_angle_beta   93.61360473
_cell_angle_gamma   98.15645083
_symmetry_Int_Tables_number   1
_chemical_formula_structural   Ti8C3
_chemical_formula_sum   'Ti64 C24'
_cell_volume   1242.69194741
_cell_formula_units_Z   8
loop_
 _symmetry_equiv_pos_site_id
 _symmetry_equiv_pos_as_xyz
  1  'x, y, z'
loop_
 _atom_site_type_symbol
 _atom_site_label
 _atom_site_symmetry_multiplicity
 _atom_site_fract_x
 _atom_site_fract_y
 _atom_site_fract_z
 _atom_site_occupancy
  C  C0  1  0.27854869  0.32805217  0.08015563  1
  C  C1  1  0.97983042  0.30056165  0.54408075  1
  C  C2  1  0.68510784  0.47394731  0.46938761  1
  C  C3  1  0.43396201  0.34845604  0.34514483  1
  C  C4  1  0.14742202  0.51674392  0.26800337  1
  C  C5  1  0.62705980  0.55991676  0.06520809  1
  C  C6  1  0.12571234  0.31165749  0.80697931  1
  C  C7  1  0.95055487  0.60168332  0.59525386  1
  C  C8  1  0.84637651  0.98406805  0.24151526  1
  C  C9  1  0.21302542  0.91346005  0.17455736  1
  C  C10  1  0.59575962  0.85833245  0.11120105  1
  C  C11  1  0.93470171  0.09468873  0.09318512  1
  C  C12  1  0.99511733  0.49377098  0.99852604  1
  C  C13  1  0.37940162  0.43518730  0.93462594  1
  C  C14  1  0.72296717  0.67589067  0.91926588  1
  C  C15  1  0.09143651  0.60951965  0.85298486  1
  C  C16  1  0.46042386  0.04050969  0.30417477  1
  C  C17  1  0.56305993  0.16112948  0.15906893  1
  C  C18  1  0.33979258  0.73952022  0.98466666  1
  C  C19  1  0.43702936  0.84222334  0.83724028  1
  C  C20  1  0.78553860  0.07642882  0.82352188  1
  C  C21  1  0.25092833  0.12127649  0.62367750  1
  C  C22  1  0.62909357  0.05989075  0.56053941  1
  C  C23  1  0.40648126  0.13914298  0.88937628  1
  Ti  Ti24  1  0.99648784  0.99996309  0.00005993  1
  Ti  Ti25  1  0.15524401  0.00626606  0.26822868  1
  Ti  Ti26  1  0.24710445  0.12388310  0.12639035  1
  Ti  Ti27  1  0.63183085  0.06188677  0.06775609  1
  Ti  Ti28  1  0.32043461  0.02582645  0.53150192  1
  Ti  Ti29  1  0.02892904  0.19627370  0.45126879  1
  Ti  Ti30  1  0.40148787  0.14690649  0.39195452  1
  Ti  Ti31  1  0.77143273  0.07437937  0.33314261  1
  Ti  Ti32  1  0.12686612  0.32370002  0.31492583  1
  Ti  Ti33  1  0.49393436  0.24251903  0.25554598  1
  Ti  Ti34  1  0.86668817  0.18163310  0.18904434  1
  Ti  Ti35  1  0.20801094  0.42647524  0.17385875  1
  Ti  Ti36  1  0.57482946  0.35839456  0.11189669  1
  Ti  Ti37  1  0.98136760  0.29409292  0.04578288  1
  Ti  Ti38  1  0.31354489  0.52677280  0.02778191  1
  Ti  Ti39  1  0.09243351  0.11382720  0.85689759  1
  Ti  Ti40  1  0.47819451  0.04364575  0.79796141  1
  Ti  Ti41  1  0.19482840  0.21638244  0.71539564  1
  Ti  Ti42  1  0.55766548  0.15041654  0.65286095  1
  Ti  Ti43  1  0.94001351  0.10082422  0.59304672  1
  Ti  Ti44  1  0.27980725  0.32306573  0.57984998  1
  Ti  Ti45  1  0.67214038  0.26581158  0.51590399  1
  Ti  Ti46  1  0.99090731  0.50247250  0.50117951  1
  Ti  Ti47  1  0.38273726  0.44220341  0.43819932  1
  Ti  Ti48  1  0.73886582  0.38160571  0.37538343  1
  Ti  Ti49  1  0.09216925  0.62577647  0.35920227  1
  Ti  Ti50  1  0.45575596  0.54703450  0.29442331  1
  Ti  Ti51  1  0.84574566  0.49439335  0.23654755  1
  Ti  Ti52  1  0.17849603  0.71245504  0.21984787  1
  Ti  Ti53  1  0.57174844  0.65934942  0.15715881  1
  Ti  Ti54  1  0.93091044  0.58849963  0.09113193  1
  Ti  Ti55  1  0.29034911  0.82915245  0.08087596  1
  Ti  Ti56  1  0.64574472  0.75887254  0.01682483  1
  Ti  Ti57  1  0.34596768  0.23524793  0.98234653  1
  Ti  Ti58  1  0.71697433  0.16279895  0.91826044  1
  Ti  Ti59  1  0.07500390  0.41412280  0.90153546  1
  Ti  Ti60  1  0.42932804  0.33703168  0.84280975  1
  Ti  Ti61  1  0.81974462  0.27571772  0.77714262  1
  Ti  Ti62  1  0.16367321  0.51223993  0.76183594  1
  Ti  Ti63  1  0.53875064  0.46063286  0.70273560  1
  Ti  Ti64  1  0.90459601  0.39816078  0.63642320  1
  Ti  Ti65  1  0.26445106  0.63008220  0.62488966  1
  Ti  Ti66  1  0.63502373  0.56828997  0.56463415  1
  Ti  Ti67  1  0.34098886  0.73844573  0.48298423  1
  Ti  Ti68  1  0.71975308  0.67973901  0.42237854  1
  Ti  Ti69  1  0.05718447  0.89962133  0.41518389  1
  Ti  Ti70  1  0.43603297  0.84039096  0.35264797  1
  Ti  Ti71  1  0.80227615  0.77874729  0.28827455  1
  Ti  Ti72  1  0.52902832  0.95854385  0.20542285  1
  Ti  Ti73  1  0.90470997  0.90035927  0.14424547  1
  Ti  Ti74  1  0.68806158  0.47761247  0.96846045  1
  Ti  Ti75  1  0.03136008  0.69330290  0.95049746  1
  Ti  Ti76  1  0.40660711  0.64611023  0.89077413  1
  Ti  Ti77  1  0.78087744  0.58063790  0.82480091  1
  Ti  Ti78  1  0.13253966  0.80728433  0.80791729  1
  Ti  Ti79  1  0.50347426  0.74574926  0.74174892  1
  Ti  Ti80  1  0.86571093  0.69350848  0.68679360  1
  Ti  Ti81  1  0.21726613  0.92362121  0.67206486  1
  Ti  Ti82  1  0.59158235  0.86043728  0.61060772  1
  Ti  Ti83  1  0.97619123  0.79708424  0.54708157  1
  Ti  Ti84  1  0.69542421  0.95473875  0.47126340  1
  Ti  Ti85  1  0.37354649  0.93740367  0.93318310  1
  Ti  Ti86  1  0.74424355  0.87552213  0.87199946  1
  Ti  Ti87  1  0.84934034  0.97274924  0.73259792  1
