# generated using pymatgen
data_Ti4C
_symmetry_space_group_name_H-M   'P 1'
_cell_length_a   6.00641245
_cell_length_b   6.66663812
_cell_length_c   7.88443203
_cell_angle_alpha   85.45177993
_cell_angle_beta   78.69410455
_cell_angle_gamma   76.88710180
_symmetry_Int_Tables_number   1
_chemical_formula_structural   Ti4C
_chemical_formula_sum   'Ti16 C4'
_cell_volume   301.31344577
_cell_formula_units_Z   4
loop_
 _symmetry_equiv_pos_site_id
 _symmetry_equiv_pos_as_xyz
  1  'x, y, z'
loop_
 _atom_site_type_symbol
 _atom_site_label
 _atom_site_symmetry_multiplicity
 _atom_site_fract_x
 _atom_site_fract_y
 _atom_site_fract_z
 _atom_site_occupancy
  C  C0  1  0.77687120  0.06971639  0.82072397  1
  C  C1  1  0.65625502  0.80373972  0.56167623  1
  C  C2  1  0.34049272  0.19117743  0.43816120  1
  C  C3  1  0.84698823  0.18588493  0.43026262  1
  Ti  Ti4  1  0.68404816  0.37971878  0.88898430  1
  Ti  Ti5  1  0.18098428  0.39377961  0.88441910  1
  Ti  Ti6  1  0.57188323  0.11596599  0.61977822  1
  Ti  Ti7  1  0.05490196  0.12771302  0.62103899  1
  Ti  Ti8  1  0.87623635  0.74941695  0.75164263  1
  Ti  Ti9  1  0.37664108  0.73230294  0.75665006  1
  Ti  Ti10  1  0.74965504  0.49837764  0.49961647  1
  Ti  Ti11  1  0.24836898  0.50118005  0.50474025  1
  Ti  Ti12  1  0.62030788  0.25757642  0.25541163  1
  Ti  Ti13  1  0.12525663  0.25710794  0.24889224  1
  Ti  Ti14  1  0.50017597  0.98943175  0.00013546  1
  Ti  Ti15  1  0.01127598  0.99061106  0.99366266  1
  Ti  Ti16  1  0.93591757  0.86907558  0.36779645  1
  Ti  Ti17  1  0.44235057  0.87537989  0.37222698  1
  Ti  Ti18  1  0.81603655  0.62504998  0.11396660  1
  Ti  Ti19  1  0.31008348  0.63700645  0.11996682  1
