# generated using pymatgen
data_Ti8C
_symmetry_space_group_name_H-M   'P 1'
_cell_length_a   6.54555276
_cell_length_b   12.89701051
_cell_length_c   15.38280030
_cell_angle_alpha   66.54038156
_cell_angle_beta   79.92284743
_cell_angle_gamma   78.39463736
_symmetry_Int_Tables_number   1
_chemical_formula_structural   Ti8C
_chemical_formula_sum   'Ti64 C8'
_cell_volume   1160.36880683
_cell_formula_units_Z   8
loop_
 _symmetry_equiv_pos_site_id
 _symmetry_equiv_pos_as_xyz
  1  'x, y, z'
loop_
 _atom_site_type_symbol
 _atom_site_label
 _atom_site_symmetry_multiplicity
 _atom_site_fract_x
 _atom_site_fract_y
 _atom_site_fract_z
 _atom_site_occupancy
  C  C0  1  0.57314630  0.19732350  0.89460987  1
  C  C1  1  0.44485348  0.42107686  0.73209368  1
  C  C2  1  0.30970527  0.77073407  0.70411359  1
  C  C3  1  0.30800027  0.64785604  0.57255280  1
  C  C4  1  0.30676311  0.51371079  0.44921564  1
  C  C5  1  0.06399204  0.19978609  0.38963427  1
  C  C6  1  0.43719065  0.67503771  0.98589597  1
  C  C7  1  0.18847570  0.35678406  0.92737627  1
  Ti  Ti8  1  0.87068432  0.34631134  0.97391511  1
  Ti  Ti9  1  0.62870197  0.02437670  0.90907395  1
  Ti  Ti10  1  0.88923500  0.21110233  0.84112053  1
  Ti  Ti11  1  0.88511253  0.09071091  0.71408536  1
  Ti  Ti12  1  0.75767409  0.68955947  0.93780136  1
  Ti  Ti13  1  0.25276879  0.18383324  0.94224472  1
  Ti  Ti14  1  0.49939828  0.37134571  0.87431270  1
  Ti  Ti15  1  0.76339151  0.56514119  0.81121885  1
  Ti  Ti16  1  0.24526986  0.05847088  0.81349131  1
  Ti  Ti17  1  0.50553417  0.24580913  0.75255169  1
  Ti  Ti18  1  0.76947867  0.43756390  0.68443600  1
  Ti  Ti19  1  0.49867561  0.12553157  0.62378928  1
  Ti  Ti20  1  0.76097478  0.30708253  0.56381329  1
  Ti  Ti21  1  0.51077589  0.00255486  0.49686992  1
  Ti  Ti22  1  0.74078995  0.18812057  0.43768300  1
  Ti  Ti23  1  0.73891996  0.06106579  0.30937297  1
  Ti  Ti24  1  0.37593659  0.84768136  0.96974544  1
  Ti  Ti25  1  0.10954780  0.53025125  0.91257126  1
  Ti  Ti26  1  0.37605292  0.72044322  0.84467934  1
  Ti  Ti27  1  0.63531885  0.91445517  0.77934349  1
  Ti  Ti28  1  0.12302238  0.40420582  0.78485721  1
  Ti  Ti29  1  0.37465048  0.59877249  0.71306534  1
  Ti  Ti30  1  0.63279395  0.78633603  0.65555592  1
  Ti  Ti31  1  0.86033957  0.97009522  0.59464498  1
  Ti  Ti32  1  0.11677011  0.27282704  0.65752347  1
  Ti  Ti33  1  0.37196586  0.47467864  0.59023495  1
  Ti  Ti34  1  0.63542685  0.66140128  0.52470083  1
  Ti  Ti35  1  0.86012272  0.85102198  0.46534961  1
  Ti  Ti36  1  0.13006054  0.15451038  0.53179637  1
  Ti  Ti37  1  0.38249349  0.34066402  0.46850595  1
  Ti  Ti38  1  0.63071841  0.52732972  0.40193855  1
  Ti  Ti39  1  0.85721766  0.72264874  0.34161383  1
  Ti  Ti40  1  0.12159362  0.02846781  0.40398194  1
  Ti  Ti41  1  0.38091156  0.21902661  0.33822303  1
  Ti  Ti42  1  0.61694523  0.40727769  0.27429917  1
  Ti  Ti43  1  0.87399939  0.59346644  0.21938791  1
  Ti  Ti44  1  0.38161683  0.09059929  0.21303944  1
  Ti  Ti45  1  0.62586790  0.28082858  0.15526223  1
  Ti  Ti46  1  0.87709466  0.46756047  0.10048355  1
  Ti  Ti47  1  0.63786729  0.14871071  0.03701210  1
  Ti  Ti48  1  0.98756909  0.88203439  0.87790344  1
  Ti  Ti49  1  0.98934201  0.75146205  0.75443338  1
  Ti  Ti50  1  0.25299141  0.94346159  0.68784561  1
  Ti  Ti51  1  0.98321934  0.62900519  0.62514943  1
  Ti  Ti52  1  0.24817457  0.81698726  0.56283685  1
  Ti  Ti53  1  0.98581479  0.49594680  0.49860014  1
  Ti  Ti54  1  0.24589668  0.68527122  0.43474320  1
  Ti  Ti55  1  0.49821016  0.88311186  0.36861542  1
  Ti  Ti56  1  0.98821734  0.37338163  0.37103284  1
  Ti  Ti57  1  0.24389980  0.56113854  0.30724409  1
  Ti  Ti58  1  0.50412092  0.75404318  0.24665240  1
  Ti  Ti59  1  0.75233149  0.93678476  0.18837844  1
  Ti  Ti60  1  0.99348074  0.25060778  0.24762945  1
  Ti  Ti61  1  0.24943557  0.43860402  0.18571932  1
  Ti  Ti62  1  0.50269357  0.62612273  0.12820213  1
  Ti  Ti63  1  0.75861364  0.81729625  0.06549784  1
  Ti  Ti64  1  0.99718189  0.11819046  0.13150199  1
  Ti  Ti65  1  0.25024526  0.31357801  0.06887599  1
  Ti  Ti66  1  0.51000141  0.50172784  0.00287894  1
  Ti  Ti67  1  0.01638711  0.99415920  0.00446002  1
  Ti  Ti68  1  0.12319300  0.90599568  0.28156426  1
  Ti  Ti69  1  0.11552943  0.78211005  0.16243919  1
  Ti  Ti70  1  0.37307987  0.95921994  0.10098167  1
  Ti  Ti71  1  0.11760634  0.65713492  0.03408986  1
