# generated using pymatgen
data_ZrScTaTiNbC5
_symmetry_space_group_name_H-M   'P 1'
_cell_length_a   7.14770778
_cell_length_b   7.17464171
_cell_length_c   4.51975177
_cell_angle_alpha   90.00000000
_cell_angle_beta   90.00000000
_cell_angle_gamma   90.06213051
_symmetry_Int_Tables_number   1
_chemical_formula_structural   ZrScTaTiNbC5
_chemical_formula_sum   'Zr2 Sc2 Ta2 Ti2 Nb2 C10'
_cell_volume   231.78286939
_cell_formula_units_Z   2
loop_
 _symmetry_equiv_pos_site_id
 _symmetry_equiv_pos_as_xyz
  1  'x, y, z'
loop_
 _atom_site_type_symbol
 _atom_site_label
 _atom_site_symmetry_multiplicity
 _atom_site_fract_x
 _atom_site_fract_y
 _atom_site_fract_z
 _atom_site_occupancy
  C  C0  1  0.30414634  0.89016694  0.00000000  1
  C  C1  1  0.50509186  0.50361977  0.00000000  1
  C  C2  1  0.40180506  0.20680565  0.50000000  1
  C  C3  1  0.09283329  0.30863070  0.00000000  1
  C  C4  1  0.99390478  0.01386961  0.50000000  1
  C  C5  1  0.69970057  0.10073660  0.00000000  1
  C  C6  1  0.60357937  0.80144204  0.50000000  1
  C  C7  1  0.20177047  0.59399735  0.50000000  1
  C  C8  1  0.90008657  0.69013934  0.00000000  1
  C  C9  1  0.79770283  0.39272670  0.50000000  1
  Zr  Zr10  1  0.29930186  0.90132899  0.50000000  1
  Zr  Zr11  1  0.40134355  0.20247793  0.00000000  1
  Ta  Ta12  1  0.19470526  0.60170201  0.00000000  1
  Ta  Ta13  1  0.09024759  0.30025189  0.50000000  1
  Ti  Ti14  1  0.70273116  0.09843407  0.50000000  1
  Ti  Ti15  1  0.79829932  0.39633943  0.00000000  1
  Nb  Nb16  1  0.50774635  0.49793566  0.50000000  1
  Nb  Nb17  1  0.60769700  0.79797148  0.00000000  1
  Sc  Sc18  1  0.90062063  0.69978878  0.50000000  1
  Sc  Sc19  1  0.99668614  0.00163506  0.00000000  1
