# generated using pymatgen
data_ZrTaTiNbVC5
_symmetry_space_group_name_H-M   'P 1'
_cell_length_a   7.02345714
_cell_length_b   7.02064572
_cell_length_c   4.46154803
_cell_angle_alpha   90.00000000
_cell_angle_beta   90.00000000
_cell_angle_gamma   89.94746500
_symmetry_Int_Tables_number   1
_chemical_formula_structural   ZrTaTiNbVC5
_chemical_formula_sum   'Zr2 Ta2 Ti2 Nb2 V2 C10'
_cell_volume   219.99529091
_cell_formula_units_Z   2
loop_
 _symmetry_equiv_pos_site_id
 _symmetry_equiv_pos_as_xyz
  1  'x, y, z'
loop_
 _atom_site_type_symbol
 _atom_site_label
 _atom_site_symmetry_multiplicity
 _atom_site_fract_x
 _atom_site_fract_y
 _atom_site_fract_z
 _atom_site_occupancy
  C  C0  1  0.29063728  0.89174790  0.00000000  1
  C  C1  1  0.50543930  0.50471066  0.00000000  1
  C  C2  1  0.40175696  0.20483061  0.50000000  1
  C  C3  1  0.08904992  0.29720830  0.00000000  1
  C  C4  1  0.98929269  0.99524765  0.50000000  1
  C  C5  1  0.71548927  0.10070755  0.00000000  1
  C  C6  1  0.61523790  0.80302671  0.50000000  1
  C  C7  1  0.19010025  0.59517741  0.50000000  1
  C  C8  1  0.90106906  0.70204604  0.00000000  1
  C  C9  1  0.80064163  0.40218382  0.50000000  1
  Zr  Zr10  1  0.29861438  0.89769144  0.50000000  1
  Zr  Zr11  1  0.40307619  0.20027200  0.00000000  1
  Ta  Ta12  1  0.18980951  0.60090813  0.00000000  1
  Ta  Ta13  1  0.08910629  0.29674089  0.50000000  1
  Ti  Ti14  1  0.70380847  0.09664979  0.50000000  1
  Ti  Ti15  1  0.80062036  0.39829002  0.00000000  1
  Nb  Nb16  1  0.51156930  0.50091400  0.50000000  1
  Nb  Nb17  1  0.61303994  0.79925202  0.00000000  1
  V  V18  1  0.89857725  0.71094971  0.50000000  1
  V  V19  1  0.99306406  0.00144533  0.00000000  1
