# generated using pymatgen
data_YZrTaTiNbC5
_symmetry_space_group_name_H-M   'P 1'
_cell_length_a   7.26702505
_cell_length_b   7.29450445
_cell_length_c   4.59634002
_cell_angle_alpha   90.00000000
_cell_angle_beta   90.00000000
_cell_angle_gamma   90.20642371
_symmetry_Int_Tables_number   1
_chemical_formula_structural   YZrTaTiNbC5
_chemical_formula_sum   'Y2 Zr2 Ta2 Ti2 Nb2 C10'
_cell_volume   243.64739982
_cell_formula_units_Z   2
loop_
 _symmetry_equiv_pos_site_id
 _symmetry_equiv_pos_as_xyz
  1  'x, y, z'
loop_
 _atom_site_type_symbol
 _atom_site_label
 _atom_site_symmetry_multiplicity
 _atom_site_fract_x
 _atom_site_fract_y
 _atom_site_fract_z
 _atom_site_occupancy
  C  C0  1  0.31180947  0.88752095  0.00000000  1
  C  C1  1  0.50370059  0.50295553  0.00000000  1
  C  C2  1  0.40182475  0.20784110  0.50000000  1
  C  C3  1  0.09730946  0.31512943  0.00000000  1
  C  C4  1  0.99713823  0.02580984  0.50000000  1
  C  C5  1  0.69015416  0.10234380  0.00000000  1
  C  C6  1  0.59532610  0.80269503  0.50000000  1
  C  C7  1  0.21204080  0.59233124  0.50000000  1
  C  C8  1  0.89931555  0.67740942  0.00000000  1
  C  C9  1  0.79523482  0.38597164  0.50000000  1
  Zr  Zr10  1  0.30493909  0.90204907  0.50000000  1
  Zr  Zr11  1  0.40196813  0.20429636  0.00000000  1
  Ta  Ta12  1  0.20195979  0.59735994  0.00000000  1
  Ta  Ta13  1  0.09378408  0.30139157  0.50000000  1
  Ti  Ti14  1  0.69707182  0.10426733  0.50000000  1
  Ti  Ti15  1  0.79601461  0.39705524  0.00000000  1
  Nb  Nb16  1  0.50421737  0.49623618  0.50000000  1
  Nb  Nb17  1  0.59887768  0.79767548  0.00000000  1
  Y  Y18  1  0.90025312  0.69786689  0.50000000  1
  Y  Y19  1  0.99706033  0.00179395  0.00000000  1
