# generated using pymatgen
data_ZrTaTiNbMoC5
_symmetry_space_group_name_H-M   'P 1'
_cell_length_a   7.08370025
_cell_length_b   7.08207349
_cell_length_c   4.46670296
_cell_angle_alpha   90.00000000
_cell_angle_beta   90.00000000
_cell_angle_gamma   90.29259998
_symmetry_Int_Tables_number   1
_chemical_formula_structural   ZrTaTiNbMoC5
_chemical_formula_sum   'Zr2 Ta2 Ti2 Nb2 Mo2 C10'
_cell_volume   224.07944174
_cell_formula_units_Z   2
loop_
 _symmetry_equiv_pos_site_id
 _symmetry_equiv_pos_as_xyz
  1  'x, y, z'
loop_
 _atom_site_type_symbol
 _atom_site_label
 _atom_site_symmetry_multiplicity
 _atom_site_fract_x
 _atom_site_fract_y
 _atom_site_fract_z
 _atom_site_occupancy
  C  C0  1  0.29786257  0.88988598  0.00000000  1
  C  C1  1  0.50414543  0.50579997  0.00000000  1
  C  C2  1  0.39930383  0.20582223  0.50000000  1
  C  C3  1  0.09096698  0.30109565  0.00000000  1
  C  C4  1  0.99093400  0.00012257  0.50000000  1
  C  C5  1  0.70886927  0.10367227  0.00000000  1
  C  C6  1  0.60918019  0.80551465  0.50000000  1
  C  C7  1  0.19738425  0.59288898  0.50000000  1
  C  C8  1  0.90039020  0.69646716  0.00000000  1
  C  C9  1  0.80028682  0.39778782  0.50000000  1
  Zr  Zr10  1  0.29839913  0.89803197  0.50000000  1
  Zr  Zr11  1  0.40477739  0.20012557  0.00000000  1
  Ta  Ta12  1  0.19469211  0.59933451  0.00000000  1
  Ta  Ta13  1  0.09125537  0.30094947  0.50000000  1
  Ti  Ti14  1  0.70401311  0.10046066  0.50000000  1
  Ti  Ti15  1  0.79939080  0.39650653  0.00000000  1
  Nb  Nb16  1  0.51202779  0.50157084  0.50000000  1
  Nb  Nb17  1  0.61063837  0.80153781  0.00000000  1
  Mo  Mo18  1  0.89384846  0.69782924  0.50000000  1
  Mo  Mo19  1  0.99163394  0.00459611  0.00000000  1
