# generated using pymatgen
data_ZrTaTiNbRhC5
_symmetry_space_group_name_H-M   'P 1'
_cell_length_a   7.05126420
_cell_length_b   7.07513536
_cell_length_c   4.51050589
_cell_angle_alpha   90.00000000
_cell_angle_beta   90.00000000
_cell_angle_gamma   90.64449448
_symmetry_Int_Tables_number   1
_chemical_formula_structural   ZrTaTiNbRhC5
_chemical_formula_sum   'Zr2 Ta2 Ti2 Nb2 Rh2 C10'
_cell_volume   225.00880787
_cell_formula_units_Z   2
loop_
 _symmetry_equiv_pos_site_id
 _symmetry_equiv_pos_as_xyz
  1  'x, y, z'
loop_
 _atom_site_type_symbol
 _atom_site_label
 _atom_site_symmetry_multiplicity
 _atom_site_fract_x
 _atom_site_fract_y
 _atom_site_fract_z
 _atom_site_occupancy
  C  C0  1  0.29767064  0.88813445  0.00000000  1
  C  C1  1  0.51239504  0.50485694  0.00000000  1
  C  C2  1  0.39500322  0.20409236  0.50000000  1
  C  C3  1  0.09182792  0.31166115  0.00000000  1
  C  C4  1  0.98429965  0.99683200  0.50000000  1
  C  C5  1  0.70412051  0.10161978  0.00000000  1
  C  C6  1  0.60821065  0.80433888  0.50000000  1
  C  C7  1  0.19712529  0.59130343  0.50000000  1
  C  C8  1  0.90745770  0.70718447  0.00000000  1
  C  C9  1  0.79801305  0.38983403  0.50000000  1
  Zr  Zr10  1  0.28555766  0.89830407  0.50000000  1
  Zr  Zr11  1  0.40100173  0.19976147  0.00000000  1
  Ta  Ta12  1  0.19211811  0.60343486  0.00000000  1
  Ta  Ta13  1  0.08819978  0.29916314  0.50000000  1
  Ti  Ti14  1  0.70342408  0.08867731  0.50000000  1
  Ti  Ti15  1  0.79987094  0.39072677  0.00000000  1
  Nb  Nb16  1  0.51984731  0.50063043  0.50000000  1
  Nb  Nb17  1  0.62427706  0.79827334  0.00000000  1
  Rh  Rh18  1  0.89415562  0.69684352  0.50000000  1
  Rh  Rh19  1  0.99542405  0.02432759  0.00000000  1
