# generated using pymatgen
data_ZrTaTiNbAgC5
_symmetry_space_group_name_H-M   'P 1'
_cell_length_a   7.09351782
_cell_length_b   7.33480098
_cell_length_c   4.51341904
_cell_angle_alpha   90.00000000
_cell_angle_beta   90.00000000
_cell_angle_gamma   88.86305059
_symmetry_Int_Tables_number   1
_chemical_formula_structural   ZrTaTiNbAgC5
_chemical_formula_sum   'Zr2 Ta2 Ti2 Nb2 Ag2 C10'
_cell_volume   234.78489033
_cell_formula_units_Z   2
loop_
 _symmetry_equiv_pos_site_id
 _symmetry_equiv_pos_as_xyz
  1  'x, y, z'
loop_
 _atom_site_type_symbol
 _atom_site_label
 _atom_site_symmetry_multiplicity
 _atom_site_fract_x
 _atom_site_fract_y
 _atom_site_fract_z
 _atom_site_occupancy
  C  C0  1  0.30341775  0.88853284  0.00000000  1
  C  C1  1  0.50809281  0.49977716  0.00000000  1
  C  C2  1  0.39444749  0.20866947  0.50000000  1
  C  C3  1  0.09590262  0.32852183  0.00000000  1
  C  C4  1  0.99677497  0.03513459  0.50000000  1
  C  C5  1  0.69668457  0.09376301  0.00000000  1
  C  C6  1  0.60350237  0.80201992  0.50000000  1
  C  C7  1  0.20547034  0.60124524  0.50000000  1
  C  C8  1  0.89316908  0.67433059  0.00000000  1
  C  C9  1  0.79264995  0.37880784  0.50000000  1
  Zr  Zr10  1  0.28557238  0.90810917  0.50000000  1
  Zr  Zr11  1  0.39834012  0.20363791  0.00000000  1
  Ta  Ta12  1  0.19276660  0.61205304  0.00000000  1
  Ta  Ta13  1  0.09079848  0.31696496  0.50000000  1
  Ti  Ti14  1  0.70877255  0.08604654  0.50000000  1
  Ti  Ti15  1  0.79767582  0.37790382  0.00000000  1
  Nb  Nb16  1  0.51625690  0.49118646  0.50000000  1
  Nb  Nb17  1  0.62164505  0.78555599  0.00000000  1
  Ag  Ag18  1  0.90016457  0.70431542  0.50000000  1
  Ag  Ag19  1  0.99789558  0.00342419  0.00000000  1
