# generated using pymatgen
data_ZrTaTiNbCdC5
_symmetry_space_group_name_H-M   'P 1'
_cell_length_a   7.17836258
_cell_length_b   7.35845448
_cell_length_c   4.53316248
_cell_angle_alpha   90.00000000
_cell_angle_beta   90.00000000
_cell_angle_gamma   89.97225235
_symmetry_Int_Tables_number   1
_chemical_formula_structural   ZrTaTiNbCdC5
_chemical_formula_sum   'Zr2 Ta2 Ti2 Nb2 Cd2 C10'
_cell_volume   239.44911336
_cell_formula_units_Z   2
loop_
 _symmetry_equiv_pos_site_id
 _symmetry_equiv_pos_as_xyz
  1  'x, y, z'
loop_
 _atom_site_type_symbol
 _atom_site_label
 _atom_site_symmetry_multiplicity
 _atom_site_fract_x
 _atom_site_fract_y
 _atom_site_fract_z
 _atom_site_occupancy
  C  C0  1  0.31256569  0.87974837  0.00000000  1
  C  C1  1  0.50460235  0.50044150  0.00000000  1
  C  C2  1  0.40023822  0.20735079  0.50000000  1
  C  C3  1  0.09621361  0.32520318  0.00000000  1
  C  C4  1  0.99970116  0.03305711  0.50000000  1
  C  C5  1  0.68597395  0.09158181  0.00000000  1
  C  C6  1  0.59528217  0.80986878  0.50000000  1
  C  C7  1  0.21578748  0.59495803  0.50000000  1
  C  C8  1  0.89113143  0.66933770  0.00000000  1
  C  C9  1  0.79416798  0.38106175  0.50000000  1
  Zr  Zr10  1  0.28870221  0.90318653  0.50000000  1
  Zr  Zr11  1  0.39994396  0.20374602  0.00000000  1
  Ta  Ta12  1  0.20398986  0.60209678  0.00000000  1
  Ta  Ta13  1  0.08829410  0.30468541  0.50000000  1
  Ti  Ti14  1  0.70043751  0.09282086  0.50000000  1
  Ti  Ti15  1  0.80073745  0.40227990  0.00000000  1
  Nb  Nb16  1  0.51042758  0.49140346  0.50000000  1
  Nb  Nb17  1  0.61439603  0.79706930  0.00000000  1
  Cd  Cd18  1  0.90174029  0.70897665  0.50000000  1
  Cd  Cd19  1  0.99566695  0.00112605  0.00000000  1
