# generated using pymatgen
data_ZrTaTiNbWC5
_symmetry_space_group_name_H-M   'P 1'
_cell_length_a   7.07530904
_cell_length_b   7.08421177
_cell_length_c   4.46896194
_cell_angle_alpha   90.00000000
_cell_angle_beta   90.00000000
_cell_angle_gamma   90.11476266
_symmetry_Int_Tables_number   1
_chemical_formula_structural   ZrTaTiNbWC5
_chemical_formula_sum   'Zr2 Ta2 Ti2 Nb2 W2 C10'
_cell_volume   223.99727449
_cell_formula_units_Z   2
loop_
 _symmetry_equiv_pos_site_id
 _symmetry_equiv_pos_as_xyz
  1  'x, y, z'
loop_
 _atom_site_type_symbol
 _atom_site_label
 _atom_site_symmetry_multiplicity
 _atom_site_fract_x
 _atom_site_fract_y
 _atom_site_fract_z
 _atom_site_occupancy
  C  C0  1  0.29455764  0.89199267  0.00000000  1
  C  C1  1  0.50277728  0.50605966  0.00000000  1
  C  C2  1  0.39951848  0.20455813  0.50000000  1
  C  C3  1  0.09163847  0.29921687  0.00000000  1
  C  C4  1  0.99092464  0.99723564  0.50000000  1
  C  C5  1  0.71116796  0.10319951  0.00000000  1
  C  C6  1  0.61076711  0.80445542  0.50000000  1
  C  C7  1  0.19486625  0.59406767  0.50000000  1
  C  C8  1  0.90129758  0.69886811  0.00000000  1
  C  C9  1  0.80093883  0.39915573  0.50000000  1
  Zr  Zr10  1  0.30073109  0.89781427  0.50000000  1
  Zr  Zr11  1  0.40678928  0.20018551  0.00000000  1
  Ta  Ta12  1  0.19612654  0.59567799  0.00000000  1
  Ta  Ta13  1  0.09361785  0.30052527  0.50000000  1
  Ti  Ti14  1  0.70427827  0.10571518  0.50000000  1
  Ti  Ti15  1  0.79748646  0.39892113  0.00000000  1
  Nb  Nb16  1  0.50825751  0.50033660  0.50000000  1
  Nb  Nb17  1  0.60806994  0.80101487  0.00000000  1
  W  W18  1  0.89124644  0.69159035  0.50000000  1
  W  W19  1  0.99494239  0.00940941  0.00000000  1
