# generated using pymatgen
data_ZrTaTiNbReC5
_symmetry_space_group_name_H-M   'P 1'
_cell_length_a   7.05278321
_cell_length_b   7.11153172
_cell_length_c   4.45078029
_cell_angle_alpha   90.00000000
_cell_angle_beta   90.00000000
_cell_angle_gamma   90.13076628
_symmetry_Int_Tables_number   1
_chemical_formula_structural   ZrTaTiNbReC5
_chemical_formula_sum   'Zr2 Ta2 Ti2 Nb2 Re2 C10'
_cell_volume   223.23316218
_cell_formula_units_Z   2
loop_
 _symmetry_equiv_pos_site_id
 _symmetry_equiv_pos_as_xyz
  1  'x, y, z'
loop_
 _atom_site_type_symbol
 _atom_site_label
 _atom_site_symmetry_multiplicity
 _atom_site_fract_x
 _atom_site_fract_y
 _atom_site_fract_z
 _atom_site_occupancy
  C  C0  1  0.29529608  0.89178050  0.00000000  1
  C  C1  1  0.50511884  0.50760218  0.00000000  1
  C  C2  1  0.39786141  0.20375640  0.50000000  1
  C  C3  1  0.09351446  0.30710705  0.00000000  1
  C  C4  1  0.98668004  0.98852029  0.50000000  1
  C  C5  1  0.70906054  0.10366354  0.00000000  1
  C  C6  1  0.61111096  0.80412741  0.50000000  1
  C  C7  1  0.19713714  0.59253413  0.50000000  1
  C  C8  1  0.90333376  0.70633527  0.00000000  1
  C  C9  1  0.79834709  0.38996052  0.50000000  1
  Zr  Zr10  1  0.29324837  0.89809979  0.50000000  1
  Zr  Zr11  1  0.40598666  0.20044610  0.00000000  1
  Ta  Ta12  1  0.19258317  0.59591797  0.00000000  1
  Ta  Ta13  1  0.09211968  0.30282827  0.50000000  1
  Ti  Ti14  1  0.70679383  0.10293986  0.50000000  1
  Ti  Ti15  1  0.79942922  0.39574158  0.00000000  1
  Nb  Nb16  1  0.51263901  0.50159138  0.50000000  1
  Nb  Nb17  1  0.61428493  0.80118441  0.00000000  1
  Re  Re18  1  0.88871216  0.67782581  0.50000000  1
  Re  Re19  1  0.99674264  0.02803753  0.00000000  1
