# generated using pymatgen
data_Ti8C7
_symmetry_space_group_name_H-M   'P 1'
_cell_length_a   6.13461840
_cell_length_b   6.13461840
_cell_length_c   9.68777805
_cell_angle_alpha   71.54157932
_cell_angle_beta   71.54157932
_cell_angle_gamma   90.00000000
_symmetry_Int_Tables_number   1
_chemical_formula_structural   Ti8C7
_chemical_formula_sum   'Ti16 C14'
_cell_volume   325.99484369
_cell_formula_units_Z   2
loop_
 _symmetry_equiv_pos_site_id
 _symmetry_equiv_pos_as_xyz
  1  'x, y, z'
loop_
 _atom_site_type_symbol
 _atom_site_label
 _atom_site_symmetry_multiplicity
 _atom_site_fract_x
 _atom_site_fract_y
 _atom_site_fract_z
 _atom_site_occupancy
  C  C0  1  0.87500000  0.37254171  0.25000000  1
  C  C1  1  0.62745829  0.12500000  0.75000000  1
  C  C2  1  0.37500000  0.87745829  0.25000000  1
  C  C3  1  0.12254171  0.62500000  0.75000000  1
  C  C4  1  0.75061551  0.75061551  0.99876899  1
  C  C5  1  0.50000000  0.50000000  0.50000000  1
  C  C6  1  0.24938449  0.24938449  0.00123101  1
  C  C7  1  0.25000000  0.75000000  -0.00000000  1
  C  C8  1  0.99938449  0.49938449  0.50123101  1
  C  C9  1  0.50061551  0.00061551  0.49876899  1
  C  C10  1  0.87500000  0.87745829  0.25000000  1
  C  C11  1  0.62745829  0.62500000  0.75000000  1
  C  C12  1  0.37500000  0.37254171  0.25000000  1
  C  C13  1  0.12254171  0.12500000  0.75000000  1
  Ti  Ti14  1  0.00888228  0.99111772  -0.00000000  1
  Ti  Ti15  1  0.74111772  0.74111772  0.50000000  1
  Ti  Ti16  1  0.49111772  0.50888228  -0.00000000  1
  Ti  Ti17  1  0.25888228  0.25888228  0.50000000  1
  Ti  Ti18  1  0.12231492  0.62231492  0.25537014  1
  Ti  Ti19  1  0.88052283  0.38052283  0.73895434  1
  Ti  Ti20  1  0.61947717  0.11947717  0.26104566  1
  Ti  Ti21  1  0.37768508  0.87768508  0.74462986  1
  Ti  Ti22  1  0.62768508  0.62768508  0.24462986  1
  Ti  Ti23  1  0.37231492  0.37231492  0.75537014  1
  Ti  Ti24  1  0.13052283  0.13052283  0.23895434  1
  Ti  Ti25  1  0.86947717  0.86947717  0.76104566  1
  Ti  Ti26  1  0.00888228  0.50888228  -0.00000000  1
  Ti  Ti27  1  0.74111772  0.25888228  0.50000000  1
  Ti  Ti28  1  0.49111772  0.99111772  -0.00000000  1
  Ti  Ti29  1  0.25888228  0.74111772  0.50000000  1
