# generated using pymatgen
data_Ti16C13
_symmetry_space_group_name_H-M   'P 1'
_cell_length_a   7.51778041
_cell_length_b   7.51778041
_cell_length_c   7.51778041
_cell_angle_alpha   109.51537755
_cell_angle_beta   109.51537755
_cell_angle_gamma   109.51537750
_symmetry_Int_Tables_number   1
_chemical_formula_structural   Ti16C13
_chemical_formula_sum   'Ti16 C13'
_cell_volume   326.53893166
_cell_formula_units_Z   1
loop_
 _symmetry_equiv_pos_site_id
 _symmetry_equiv_pos_as_xyz
  1  'x, y, z'
loop_
 _atom_site_type_symbol
 _atom_site_label
 _atom_site_symmetry_multiplicity
 _atom_site_fract_x
 _atom_site_fract_y
 _atom_site_fract_z
 _atom_site_occupancy
  C  C0  1  0.49472348  0.50527652  0.00000000  1
  C  C1  1  0.00000000  0.49472348  0.50527652  1
  C  C2  1  0.50527652  0.00000000  0.49472348  1
  C  C3  1  0.00000000  0.00000000  0.00000000  1
  C  C4  1  0.74986521  0.25013479  0.00000000  1
  C  C5  1  0.00000000  0.74986521  0.25013479  1
  C  C6  1  0.25013479  0.00000000  0.74986521  1
  C  C7  1  0.75433655  0.50101293  0.75210907  1
  C  C8  1  0.75210907  0.75433655  0.50101293  1
  C  C9  1  0.50101293  0.75210907  0.75433655  1
  C  C10  1  0.24789093  0.49898707  0.24566345  1
  C  C11  1  0.24566345  0.24789093  0.49898707  1
  C  C12  1  0.49898707  0.24566345  0.24789093  1
  Ti  Ti13  1  0.00957680  0.99042320  0.50000000  1
  Ti  Ti14  1  0.50000000  0.00957680  0.99042320  1
  Ti  Ti15  1  0.99042320  0.50000000  0.00957680  1
  Ti  Ti16  1  0.50000000  0.50000000  0.50000000  1
  Ti  Ti17  1  0.25043535  0.74956465  0.50000000  1
  Ti  Ti18  1  0.50000000  0.25043535  0.74956465  1
  Ti  Ti19  1  0.74956465  0.50000000  0.25043535  1
  Ti  Ti20  1  0.24936110  0.00984199  0.26023304  1
  Ti  Ti21  1  0.26023304  0.24936110  0.00984199  1
  Ti  Ti22  1  0.00984199  0.26023304  0.24936110  1
  Ti  Ti23  1  0.73976696  0.99015801  0.75063890  1
  Ti  Ti24  1  0.75063890  0.73976696  0.99015801  1
  Ti  Ti25  1  0.99015801  0.75063890  0.73976696  1
  Ti  Ti26  1  0.73984967  0.26015033  0.50000000  1
  Ti  Ti27  1  0.50000000  0.73984967  0.26015033  1
  Ti  Ti28  1  0.26015033  0.50000000  0.73984967  1
