# generated using pymatgen
data_Ti4C3
_symmetry_space_group_name_H-M   'P 1'
_cell_length_a   6.12073852
_cell_length_b   7.52435210
_cell_length_c   7.52435210
_cell_angle_alpha   70.62451278
_cell_angle_beta   90.08218159
_cell_angle_gamma   89.91781841
_symmetry_Int_Tables_number   1
_chemical_formula_structural   Ti4C3
_chemical_formula_sum   'Ti16 C12'
_cell_volume   326.90406559
_cell_formula_units_Z   4
loop_
 _symmetry_equiv_pos_site_id
 _symmetry_equiv_pos_as_xyz
  1  'x, y, z'
loop_
 _atom_site_type_symbol
 _atom_site_label
 _atom_site_symmetry_multiplicity
 _atom_site_fract_x
 _atom_site_fract_y
 _atom_site_fract_z
 _atom_site_occupancy
  C  C0  1  0.50000000  0.25276268  0.75276268  1
  C  C1  1  0.00000000  0.49928790  0.99928790  1
  C  C2  1  0.50000000  0.75183953  0.25183953  1
  C  C3  1  0.25000000  0.87316047  0.87316047  1
  C  C4  1  0.75000000  0.12571210  0.12571210  1
  C  C5  1  0.25000000  0.37223732  0.37223732  1
  C  C6  1  0.00000000  0.25183953  0.75183953  1
  C  C7  1  0.00000000  0.75276268  0.25276268  1
  C  C8  1  0.50000000  0.99928790  0.49928790  1
  C  C9  1  0.75000000  0.37316047  0.37316047  1
  C  C10  1  0.25000000  0.62571210  0.62571210  1
  C  C11  1  0.75000000  0.87223732  0.87223732  1
  Ti  Ti12  1  0.99230935  0.99499481  0.99356140  1
  Ti  Ti13  1  0.50709995  0.24264666  0.26634850  1
  Ti  Ti14  1  0.00769065  0.49356140  0.49499481  1
  Ti  Ti15  1  0.49290005  0.76634850  0.74264666  1
  Ti  Ti16  1  0.24290005  0.38235334  0.85865150  1
  Ti  Ti17  1  0.75769065  0.63000519  0.13143860  1
  Ti  Ti18  1  0.25709995  0.85865150  0.38235334  1
  Ti  Ti19  1  0.74230935  0.13143860  0.63000519  1
  Ti  Ti20  1  0.50769065  0.99356140  0.99499481  1
  Ti  Ti21  1  0.99290005  0.26634850  0.24264666  1
  Ti  Ti22  1  0.49230935  0.49499481  0.49356140  1
  Ti  Ti23  1  0.00709995  0.74264666  0.76634850  1
  Ti  Ti24  1  0.25769065  0.13000519  0.63143860  1
  Ti  Ti25  1  0.75709995  0.35865150  0.88235334  1
  Ti  Ti26  1  0.24230935  0.63143860  0.13000519  1
  Ti  Ti27  1  0.74290005  0.88235334  0.35865150  1
