# generated using pymatgen
data_Ti16C15
_symmetry_space_group_name_H-M   'P 1'
_cell_length_a   7.50402541
_cell_length_b   7.50402541
_cell_length_c   7.50402541
_cell_angle_alpha   70.52877935
_cell_angle_beta   109.47122061
_cell_angle_gamma   70.52877940
_symmetry_Int_Tables_number   1
_chemical_formula_structural   Ti16C15
_chemical_formula_sum   'Ti16 C15'
_cell_volume   325.28272344
_cell_formula_units_Z   1
loop_
 _symmetry_equiv_pos_site_id
 _symmetry_equiv_pos_as_xyz
  1  'x, y, z'
loop_
 _atom_site_type_symbol
 _atom_site_label
 _atom_site_symmetry_multiplicity
 _atom_site_fract_x
 _atom_site_fract_y
 _atom_site_fract_z
 _atom_site_occupancy
  C  C0  1  0.50127664  0.99744672  0.00127664  1
  C  C1  1  0.99872336  0.00255328  0.49872336  1
  C  C2  1  0.50127664  0.50000000  0.49872336  1
  C  C3  1  0.99872336  0.50000000  0.00127664  1
  C  C4  1  0.25255328  0.74872336  0.00127664  1
  C  C5  1  0.75000000  0.74872336  0.49872336  1
  C  C6  1  0.24744672  0.25127664  0.49872336  1
  C  C7  1  0.75000000  0.25127664  0.00127664  1
  C  C8  1  0.99872336  0.25127664  0.74744672  1
  C  C9  1  0.50127664  0.25127664  0.25000000  1
  C  C10  1  0.99872336  0.74872336  0.25000000  1
  C  C11  1  0.50127664  0.74872336  0.75255328  1
  C  C12  1  0.25000000  -0.00000000  0.25000000  1
  C  C13  1  0.75000000  -0.00000000  0.75000000  1
  C  C14  1  0.25000000  0.50000000  0.75000000  1
  Ti  Ti15  1  0.00000000  -0.00000000  -0.00000000  1
  Ti  Ti16  1  0.50000000  -0.00000000  0.50000000  1
  Ti  Ti17  1  0.00935812  0.50000000  0.50935812  1
  Ti  Ti18  1  0.49064188  0.50000000  0.99064188  1
  Ti  Ti19  1  0.25000000  0.25000000  -0.00000000  1
  Ti  Ti20  1  0.75000000  0.24064188  0.50935812  1
  Ti  Ti21  1  0.25000000  0.75000000  0.50000000  1
  Ti  Ti22  1  0.75000000  0.75935812  0.99064188  1
  Ti  Ti23  1  0.49064188  0.75935812  0.25000000  1
  Ti  Ti24  1  0.00000000  0.75000000  0.75000000  1
  Ti  Ti25  1  0.50000000  0.25000000  0.75000000  1
  Ti  Ti26  1  0.00935812  0.24064188  0.25000000  1
  Ti  Ti27  1  0.25000000  -0.00000000  0.75000000  1
  Ti  Ti28  1  0.75000000  -0.00000000  0.25000000  1
  Ti  Ti29  1  0.25000000  0.50000000  0.25000000  1
  Ti  Ti30  1  0.75000000  0.50000000  0.75000000  1
