# generated using pymatgen
data_TiMnFeCoNi
_symmetry_space_group_name_H-M   'P 1'
_cell_length_a   5.63541841
_cell_length_b   5.58460337
_cell_length_c   7.34568327
_cell_angle_alpha   89.73521580
_cell_angle_beta   89.38198240
_cell_angle_gamma   90.68465438
_symmetry_Int_Tables_number   1
_chemical_formula_structural   TiMnFeCoNi
_chemical_formula_sum   'Ti4 Mn4 Fe4 Co4 Ni4'
_cell_volume   231.14767307
_cell_formula_units_Z   4
loop_
 _symmetry_equiv_pos_site_id
 _symmetry_equiv_pos_as_xyz
  1  'x, y, z'
loop_
 _atom_site_type_symbol
 _atom_site_label
 _atom_site_symmetry_multiplicity
 _atom_site_fract_x
 _atom_site_fract_y
 _atom_site_fract_z
 _atom_site_occupancy
  Ti  Ti0  1  0.08398730  0.28668159  0.73232555  1
  Ti  Ti1  1  0.19290922  0.63325706  0.99223596  1
  Ti  Ti2  1  0.29698536  0.89190342  0.28454445  1
  Ti  Ti3  1  0.42654121  0.17858228  0.00161859  1
  Co  Co4  1  0.29486210  0.88460112  0.72703498  1
  Co  Co5  1  0.51421147  0.49811006  0.74526696  1
  Co  Co6  1  0.60191324  0.79576833  0.50482525  1
  Co  Co7  1  0.88295309  0.70328339  0.25167814  1
  Mn  Mn8  1  0.96471548  0.01574363  0.00304361  1
  Mn  Mn9  1  0.20146031  0.57757988  0.51480495  1
  Mn  Mn10  1  0.42445330  0.21387330  0.49855507  1
  Mn  Mn11  1  0.88460115  0.72329506  0.74353668  1
  Fe  Fe12  1  0.72127860  0.09508959  0.25880975  1
  Fe  Fe13  1  0.79077179  0.41120623  0.49192506  1
  Fe  Fe14  1  0.62617782  0.78227203  0.99968535  1
  Fe  Fe15  1  0.81208907  0.40867930  0.00595161  1
  Ni  Ni16  1  0.99039097  0.99555620  0.49864557  1
  Ni  Ni17  1  0.10160155  0.31399463  0.25588595  1
  Ni  Ni18  1  0.68270463  0.09697169  0.73991986  1
  Ni  Ni19  1  0.50539231  0.49355122  0.24970664  1
