# generated using pymatgen
data_MnFeCoNiMo
_symmetry_space_group_name_H-M   'P 1'
_cell_length_a   5.67134267
_cell_length_b   5.62771438
_cell_length_c   7.27134072
_cell_angle_alpha   89.87516525
_cell_angle_beta   89.92521062
_cell_angle_gamma   90.35133366
_symmetry_Int_Tables_number   1
_chemical_formula_structural   MnFeCoNiMo
_chemical_formula_sum   'Mn4 Fe4 Co4 Ni4 Mo4'
_cell_volume   232.07206076
_cell_formula_units_Z   4
loop_
 _symmetry_equiv_pos_site_id
 _symmetry_equiv_pos_as_xyz
  1  'x, y, z'
loop_
 _atom_site_type_symbol
 _atom_site_label
 _atom_site_symmetry_multiplicity
 _atom_site_fract_x
 _atom_site_fract_y
 _atom_site_fract_z
 _atom_site_occupancy
  Mo  Mo0  1  0.08302091  0.29601711  0.73869881  1
  Mo  Mo1  1  0.19971348  0.62793769  0.99977125  1
  Mo  Mo2  1  0.29921236  0.90047150  0.27726268  1
  Mo  Mo3  1  0.42008544  0.17944502  0.00192467  1
  Co  Co4  1  0.29986748  0.88783167  0.72888558  1
  Co  Co5  1  0.51324329  0.50159575  0.74708446  1
  Co  Co6  1  0.60588268  0.79036728  0.50444453  1
  Co  Co7  1  0.88656866  0.70194643  0.25111882  1
  Mn  Mn8  1  0.97147110  0.01010839  0.99812920  1
  Mn  Mn9  1  0.20931252  0.59029016  0.50786725  1
  Mn  Mn10  1  0.41004142  0.21500642  0.49940949  1
  Mn  Mn11  1  0.89354674  0.71604692  0.74724978  1
  Fe  Fe12  1  0.71196327  0.09393767  0.25196255  1
  Fe  Fe13  1  0.79286689  0.40321729  0.49715438  1
  Fe  Fe14  1  0.62092778  0.78457270  0.99232656  1
  Fe  Fe15  1  0.80528213  0.40706403  0.00679566  1
  Ni  Ni16  1  0.98887383  0.99526576  0.50118755  1
  Ni  Ni17  1  0.09539289  0.31085542  0.25599571  1
  Ni  Ni18  1  0.68676320  0.09520558  0.74008132  1
  Ni  Ni19  1  0.50596391  0.49281723  0.25264974  1
