# generated using pymatgen
data_MnFeCoCuNi
_symmetry_space_group_name_H-M   'P 1'
_cell_length_a   5.54015242
_cell_length_b   5.53192432
_cell_length_c   7.04989666
_cell_angle_alpha   90.28966911
_cell_angle_beta   89.75012215
_cell_angle_gamma   89.69941227
_symmetry_Int_Tables_number   1
_chemical_formula_structural   MnFeCoCuNi
_chemical_formula_sum   'Mn4 Fe4 Co4 Cu4 Ni4'
_cell_volume   216.05533093
_cell_formula_units_Z   4
loop_
 _symmetry_equiv_pos_site_id
 _symmetry_equiv_pos_as_xyz
  1  'x, y, z'
loop_
 _atom_site_type_symbol
 _atom_site_label
 _atom_site_symmetry_multiplicity
 _atom_site_fract_x
 _atom_site_fract_y
 _atom_site_fract_z
 _atom_site_occupancy
  Cu  Cu0  1  0.09649782  0.29606173  0.75325073  1
  Cu  Cu1  1  0.20172258  0.60145779  0.99979748  1
  Cu  Cu2  1  0.29847753  0.89837612  0.25000194  1
  Cu  Cu3  1  0.40060273  0.19464527  0.00153159  1
  Co  Co4  1  0.29873635  0.89179206  0.74468358  1
  Co  Co5  1  0.51394936  0.50620539  0.74186650  1
  Co  Co6  1  0.60287337  0.79647169  0.50028350  1
  Co  Co7  1  0.88983635  0.70336236  0.25179770  1
  Mn  Mn8  1  0.97176105  0.99901487  0.99744650  1
  Mn  Mn9  1  0.20597860  0.58935607  0.51037983  1
  Mn  Mn10  1  0.40448947  0.21358227  0.50138602  1
  Mn  Mn11  1  0.89299057  0.70866506  0.74334241  1
  Fe  Fe12  1  0.70676291  0.09863169  0.26096712  1
  Fe  Fe13  1  0.79716110  0.40923870  0.49562156  1
  Fe  Fe14  1  0.62408438  0.79278143  0.99333269  1
  Fe  Fe15  1  0.79807653  0.39702223  0.00493373  1
  Ni  Ni16  1  0.00126977  0.00180179  0.49916079  1
  Ni  Ni17  1  0.09592089  0.30300480  0.25426951  1
  Ni  Ni18  1  0.69187216  0.09912533  0.74469659  1
  Ni  Ni19  1  0.50693644  0.49940338  0.25125020  1
