# generated using pymatgen
data_MnCrFeCoNi
_symmetry_space_group_name_H-M   'P 1'
_cell_length_a   5.52773321
_cell_length_b   5.49486475
_cell_length_c   7.04470438
_cell_angle_alpha   89.92655260
_cell_angle_beta   89.95314854
_cell_angle_gamma   90.27866168
_symmetry_Int_Tables_number   1
_chemical_formula_structural   MnCrFeCoNi
_chemical_formula_sum   'Mn4 Cr4 Fe4 Co4 Ni4'
_cell_volume   213.97410267
_cell_formula_units_Z   4
loop_
 _symmetry_equiv_pos_site_id
 _symmetry_equiv_pos_as_xyz
  1  'x, y, z'
loop_
 _atom_site_type_symbol
 _atom_site_label
 _atom_site_symmetry_multiplicity
 _atom_site_fract_x
 _atom_site_fract_y
 _atom_site_fract_z
 _atom_site_occupancy
  Cr  Cr0  1  0.09356646  0.29656183  0.74404752  1
  Cr  Cr1  1  0.19959391  0.61270130  0.00119379  1
  Cr  Cr2  1  0.29712010  0.89789775  0.25807707  1
  Cr  Cr3  1  0.41520179  0.18840667  0.00336562  1
  Co  Co4  1  0.29885272  0.89473264  0.74514871  1
  Co  Co5  1  0.50068358  0.49964591  0.75089902  1
  Co  Co6  1  0.59707569  0.79764181  0.50032878  1
  Co  Co7  1  0.89743169  0.70303604  0.24861051  1
  Mn  Mn8  1  0.99183325  0.00388725  0.99690192  1
  Mn  Mn9  1  0.20558802  0.59510726  0.50690895  1
  Mn  Mn10  1  0.40333847  0.20680415  0.49803229  1
  Mn  Mn11  1  0.90029522  0.70248692  0.75080005  1
  Fe  Fe12  1  0.69840179  0.09310779  0.24934278  1
  Fe  Fe13  1  0.79816482  0.40409366  0.50295555  1
  Fe  Fe14  1  0.59890082  0.79713051  0.99568824  1
  Fe  Fe15  1  0.80811772  0.40615935  0.00056157  1
  Ni  Ni16  1  0.99905822  0.99957874  0.50033685  1
  Ni  Ni17  1  0.09840348  0.30404202  0.25095072  1
  Ni  Ni18  1  0.69471703  0.09976492  0.74704923  1
  Ni  Ni19  1  0.50365521  0.49721351  0.24880081  1
