# generated using pymatgen
data_MnFeCoNiRu
_symmetry_space_group_name_H-M   'P 1'
_cell_length_a   5.60128939
_cell_length_b   5.61107846
_cell_length_c   7.14107095
_cell_angle_alpha   90.08447190
_cell_angle_beta   89.83029152
_cell_angle_gamma   90.03028434
_symmetry_Int_Tables_number   1
_chemical_formula_structural   MnFeCoNiRu
_chemical_formula_sum   'Mn4 Fe4 Co4 Ni4 Ru4'
_cell_volume   224.43741815
_cell_formula_units_Z   4
loop_
 _symmetry_equiv_pos_site_id
 _symmetry_equiv_pos_as_xyz
  1  'x, y, z'
loop_
 _atom_site_type_symbol
 _atom_site_label
 _atom_site_symmetry_multiplicity
 _atom_site_fract_x
 _atom_site_fract_y
 _atom_site_fract_z
 _atom_site_occupancy
  Ru  Ru0  1  0.09330313  0.29992389  0.74174770  1
  Ru  Ru1  1  0.19260153  0.60746748  0.99608325  1
  Ru  Ru2  1  0.30192965  0.90559416  0.26186955  1
  Ru  Ru3  1  0.41074403  0.19243937  0.99940295  1
  Co  Co4  1  0.30340733  0.89034402  0.74438975  1
  Co  Co5  1  0.50603403  0.50754296  0.74968613  1
  Co  Co6  1  0.60189521  0.79097594  0.50320317  1
  Co  Co7  1  0.89255686  0.69829373  0.25113735  1
  Mn  Mn8  1  0.98804375  0.00016323  0.00152513  1
  Mn  Mn9  1  0.21123690  0.59748311  0.50371771  1
  Mn  Mn10  1  0.40563144  0.21384681  0.49876730  1
  Mn  Mn11  1  0.90065936  0.70221572  0.74876969  1
  Fe  Fe12  1  0.70907608  0.09542740  0.25049960  1
  Fe  Fe13  1  0.78776503  0.40046282  0.49724177  1
  Fe  Fe14  1  0.61008744  0.79811264  0.99723884  1
  Fe  Fe15  1  0.79672154  0.40244692  0.00302024  1
  Ni  Ni16  1  0.99333218  0.99450337  0.50036677  1
  Ni  Ni17  1  0.09455477  0.30600621  0.25499144  1
  Ni  Ni18  1  0.69575604  0.09734346  0.74484155  1
  Ni  Ni19  1  0.50466369  0.49940676  0.25150010  1
