# generated using pymatgen
data_ZrMnFeCoNi
_symmetry_space_group_name_H-M   'P 1'
_cell_length_a   5.75708114
_cell_length_b   5.77748703
_cell_length_c   7.66957679
_cell_angle_alpha   89.39781094
_cell_angle_beta   88.89900264
_cell_angle_gamma   89.54600350
_symmetry_Int_Tables_number   1
_chemical_formula_structural   ZrMnFeCoNi
_chemical_formula_sum   'Zr4 Mn4 Fe4 Co4 Ni4'
_cell_volume   255.03254266
_cell_formula_units_Z   4
loop_
 _symmetry_equiv_pos_site_id
 _symmetry_equiv_pos_as_xyz
  1  'x, y, z'
loop_
 _atom_site_type_symbol
 _atom_site_label
 _atom_site_symmetry_multiplicity
 _atom_site_fract_x
 _atom_site_fract_y
 _atom_site_fract_z
 _atom_site_occupancy
  Zr  Zr0  1  0.06743002  0.27929912  0.72796066  1
  Zr  Zr1  1  0.19482305  0.64703578  0.98537836  1
  Zr  Zr2  1  0.30083369  0.89575244  0.29537389  1
  Zr  Zr3  1  0.43078612  0.18137592  0.00097401  1
  Co  Co4  1  0.29137179  0.88087532  0.70303882  1
  Co  Co5  1  0.53466456  0.49507465  0.74254169  1
  Co  Co6  1  0.60928215  0.78217977  0.51128737  1
  Co  Co7  1  0.86868366  0.70569138  0.25714381  1
  Mn  Mn8  1  0.94700568  0.02695612  0.00987748  1
  Mn  Mn9  1  0.20391606  0.57511270  0.51581088  1
  Mn  Mn10  1  0.43744871  0.23027343  0.50139822  1
  Mn  Mn11  1  0.88407427  0.72703874  0.73592155  1
  Fe  Fe12  1  0.73409731  0.09871430  0.26057439  1
  Fe  Fe13  1  0.78582564  0.40927628  0.48215535  1
  Fe  Fe14  1  0.64859460  0.77334211  0.99874775  1
  Fe  Fe15  1  0.81573214  0.40908867  0.02258311  1
  Ni  Ni16  1  0.96842928  0.98913427  0.49698381  1
  Ni  Ni17  1  0.10353530  0.32759279  0.26910097  1
  Ni  Ni18  1  0.66636664  0.07754611  0.73200503  1
  Ni  Ni19  1  0.50709931  0.48864011  0.25114284  1
