# generated using pymatgen
data_MnVFeCoNi
_symmetry_space_group_name_H-M   'P 1'
_cell_length_a   5.56096937
_cell_length_b   5.52756712
_cell_length_c   7.17934258
_cell_angle_alpha   89.84554736
_cell_angle_beta   89.89445592
_cell_angle_gamma   90.63373614
_symmetry_Int_Tables_number   1
_chemical_formula_structural   MnVFeCoNi
_chemical_formula_sum   'Mn4 V4 Fe4 Co4 Ni4'
_cell_volume   220.66847786
_cell_formula_units_Z   4
loop_
 _symmetry_equiv_pos_site_id
 _symmetry_equiv_pos_as_xyz
  1  'x, y, z'
loop_
 _atom_site_type_symbol
 _atom_site_label
 _atom_site_symmetry_multiplicity
 _atom_site_fract_x
 _atom_site_fract_y
 _atom_site_fract_z
 _atom_site_occupancy
  V  V0  1  0.08854019  0.29411033  0.73738728  1
  V  V1  1  0.19618907  0.62670248  0.99979923  1
  V  V2  1  0.29938732  0.89721520  0.27630661  1
  V  V3  1  0.41838105  0.17913060  0.00196698  1
  Co  Co4  1  0.29843044  0.88979008  0.73633169  1
  Co  Co5  1  0.50620561  0.49744386  0.74936200  1
  Co  Co6  1  0.59831886  0.79329270  0.50306646  1
  Co  Co7  1  0.89337868  0.70429796  0.24743785  1
  Mn  Mn8  1  0.98245724  0.01174299  0.99886464  1
  Mn  Mn9  1  0.20087011  0.58456557  0.51158449  1
  Mn  Mn10  1  0.41019252  0.20536681  0.49696099  1
  Mn  Mn11  1  0.89669778  0.71375022  0.75014784  1
  Fe  Fe12  1  0.70612712  0.09544205  0.25030169  1
  Fe  Fe13  1  0.79428660  0.40679714  0.49644009  1
  Fe  Fe14  1  0.61353745  0.79111188  0.99629308  1
  Fe  Fe15  1  0.80894247  0.40719547  0.00160205  1
  Ni  Ni16  1  0.99423745  0.99705371  0.50018191  1
  Ni  Ni17  1  0.10020905  0.30976000  0.25248845  1
  Ni  Ni18  1  0.69027977  0.09956846  0.74466784  1
  Ni  Ni19  1  0.50333119  0.49566248  0.24880879  1
