# generated using pymatgen
data_MnFeCoTcNi
_symmetry_space_group_name_H-M   'P 1'
_cell_length_a   5.61666159
_cell_length_b   5.61120004
_cell_length_c   7.18242638
_cell_angle_alpha   89.98563700
_cell_angle_beta   89.90418711
_cell_angle_gamma   90.02322137
_symmetry_Int_Tables_number   1
_chemical_formula_structural   MnFeCoTcNi
_chemical_formula_sum   'Mn4 Fe4 Co4 Tc4 Ni4'
_cell_volume   226.36252836
_cell_formula_units_Z   4
loop_
 _symmetry_equiv_pos_site_id
 _symmetry_equiv_pos_as_xyz
  1  'x, y, z'
loop_
 _atom_site_type_symbol
 _atom_site_label
 _atom_site_symmetry_multiplicity
 _atom_site_fract_x
 _atom_site_fract_y
 _atom_site_fract_z
 _atom_site_occupancy
  Tc  Tc0  1  0.08804512  0.29824709  0.73953574  1
  Tc  Tc1  1  0.19712425  0.61220179  0.99899180  1
  Tc  Tc2  1  0.30238421  0.90574420  0.26407080  1
  Tc  Tc3  1  0.41174470  0.18928248  0.00131643  1
  Co  Co4  1  0.30158827  0.88963855  0.74106393  1
  Co  Co5  1  0.50988735  0.50754615  0.74774967  1
  Co  Co6  1  0.60236304  0.79253705  0.50315076  1
  Co  Co7  1  0.89093675  0.70027956  0.25085343  1
  Mn  Mn8  1  0.98354685  0.00738018  0.99975318  1
  Mn  Mn9  1  0.21034050  0.59574264  0.50575662  1
  Mn  Mn10  1  0.40671210  0.21263757  0.49938665  1
  Mn  Mn11  1  0.90025179  0.70620378  0.74818739  1
  Fe  Fe12  1  0.71001219  0.09163391  0.25261147  1
  Fe  Fe13  1  0.79005697  0.40062531  0.49788929  1
  Fe  Fe14  1  0.61023652  0.79109577  0.99416925  1
  Fe  Fe15  1  0.79950953  0.40311495  0.00324344  1
  Ni  Ni16  1  0.99468938  0.99427984  0.50069332  1
  Ni  Ni17  1  0.09374018  0.30847898  0.25550779  1
  Ni  Ni18  1  0.69188479  0.09641333  0.74375463  1
  Ni  Ni19  1  0.50494550  0.49691686  0.25231440  1
