# generated using pymatgen
data_MnFeCoNiIr
_symmetry_space_group_name_H-M   'P 1'
_cell_length_a   5.62985285
_cell_length_b   5.65758704
_cell_length_c   7.16352577
_cell_angle_alpha   90.09868667
_cell_angle_beta   89.70793192
_cell_angle_gamma   89.83082126
_symmetry_Int_Tables_number   1
_chemical_formula_structural   MnFeCoNiIr
_chemical_formula_sum   'Mn4 Fe4 Co4 Ni4 Ir4'
_cell_volume   228.16389627
_cell_formula_units_Z   4
loop_
 _symmetry_equiv_pos_site_id
 _symmetry_equiv_pos_as_xyz
  1  'x, y, z'
loop_
 _atom_site_type_symbol
 _atom_site_label
 _atom_site_symmetry_multiplicity
 _atom_site_fract_x
 _atom_site_fract_y
 _atom_site_fract_z
 _atom_site_occupancy
  Ir  Ir0  1  0.09280109  0.29669437  0.74107072  1
  Ir  Ir1  1  0.19002497  0.60913885  0.99536537  1
  Ir  Ir2  1  0.30146321  0.90345438  0.26186399  1
  Ir  Ir3  1  0.41466811  0.19617055  0.99799217  1
  Co  Co4  1  0.30406960  0.89346220  0.74345535  1
  Co  Co5  1  0.50608351  0.51060438  0.74914685  1
  Co  Co6  1  0.60197833  0.78865138  0.50284262  1
  Co  Co7  1  0.89376923  0.69701797  0.25349298  1
  Mn  Mn8  1  0.98417314  0.99846054  0.00254928  1
  Mn  Mn9  1  0.21381594  0.59640658  0.50309451  1
  Mn  Mn10  1  0.40635964  0.21775552  0.49932084  1
  Mn  Mn11  1  0.89589691  0.69884617  0.74982680  1
  Fe  Fe12  1  0.70611729  0.09552864  0.25168673  1
  Fe  Fe13  1  0.78618096  0.40042807  0.49794875  1
  Fe  Fe14  1  0.61597500  0.79958002  0.99791088  1
  Fe  Fe15  1  0.79730408  0.40581171  0.00275248  1
  Ni  Ni16  1  0.99197489  0.99357795  0.50017320  1
  Ni  Ni17  1  0.09303490  0.30384833  0.25541694  1
  Ni  Ni18  1  0.69741180  0.09435951  0.74242412  1
  Ni  Ni19  1  0.50689740  0.50020290  0.25166540  1
