# generated using pymatgen
data_VCrFeCoNi
_symmetry_space_group_name_H-M   'P 1'
_cell_length_a   5.67139185
_cell_length_b   5.61328302
_cell_length_c   7.11959446
_cell_angle_alpha   89.56836450
_cell_angle_beta   90.05523154
_cell_angle_gamma   90.19131482
_symmetry_Int_Tables_number   1
_chemical_formula_structural   VCrFeCoNi
_chemical_formula_sum   'V4 Cr4 Fe4 Co4 Ni4'
_cell_volume   226.64540289
_cell_formula_units_Z   4
loop_
 _symmetry_equiv_pos_site_id
 _symmetry_equiv_pos_as_xyz
  1  'x, y, z'
loop_
 _atom_site_type_symbol
 _atom_site_label
 _atom_site_symmetry_multiplicity
 _atom_site_fract_x
 _atom_site_fract_y
 _atom_site_fract_z
 _atom_site_occupancy
  Co  Co0  1  0.20189476  0.60499436  0.50324334  1
  Co  Co1  1  0.29020236  0.90127056  0.74854190  1
  Co  Co2  1  0.19622261  0.59647981  0.00013632  1
  Co  Co3  1  0.29902930  0.90725412  0.25048973  1
  Cr  Cr4  1  0.38310736  0.21047901  0.50092961  1
  Cr  Cr5  1  0.49216051  0.50175547  0.27102634  1
  Cr  Cr6  1  0.59565591  0.78107113  0.49072696  1
  Cr  Cr7  1  0.81440715  0.40614347  0.49011506  1
  Fe  Fe8  1  0.10773315  0.30540984  0.75169408  1
  Fe  Fe9  1  0.49745119  0.51185540  0.73943760  1
  Fe  Fe10  1  0.80241056  0.40241165  0.00056569  1
  Fe  Fe11  1  0.90915393  0.69121743  0.25497408  1
  Ni  Ni12  1  0.99693982  0.99576712  0.49837485  1
  Ni  Ni13  1  0.09865400  0.30064084  0.24725203  1
  Ni  Ni14  1  0.70087986  0.09430649  0.25701471  1
  Ni  Ni15  1  0.89898632  0.69435360  0.75159547  1
  V  V16  1  0.00974329  0.99420442  0.00580190  1
  V  V17  1  0.70192167  0.10131380  0.72959071  1
  V  V18  1  0.42273883  0.22548207  0.00415966  1
  V  V19  1  0.58070741  0.77358945  0.00432994  1
