# generated using pymatgen
data_TiCrFeCoNi
_symmetry_space_group_name_H-M   'P 1'
_cell_length_a   5.79216864
_cell_length_b   5.72722056
_cell_length_c   7.12805542
_cell_angle_alpha   90.11125609
_cell_angle_beta   89.93778801
_cell_angle_gamma   90.37336886
_symmetry_Int_Tables_number   1
_chemical_formula_structural   TiCrFeCoNi
_chemical_formula_sum   'Ti4 Cr4 Fe4 Co4 Ni4'
_cell_volume   236.45357487
_cell_formula_units_Z   4
loop_
 _symmetry_equiv_pos_site_id
 _symmetry_equiv_pos_as_xyz
  1  'x, y, z'
loop_
 _atom_site_type_symbol
 _atom_site_label
 _atom_site_symmetry_multiplicity
 _atom_site_fract_x
 _atom_site_fract_y
 _atom_site_fract_z
 _atom_site_occupancy
  Co  Co0  1  0.19961949  0.60460257  0.50016418  1
  Co  Co1  1  0.29570824  0.90785472  0.73895082  1
  Co  Co2  1  0.18520218  0.59384225  0.99844404  1
  Co  Co3  1  0.29870744  0.90875699  0.26374370  1
  Cr  Cr4  1  0.36861364  0.21185351  0.50300415  1
  Cr  Cr5  1  0.49623907  0.49758772  0.28552891  1
  Cr  Cr6  1  0.59185933  0.77892759  0.47970814  1
  Cr  Cr7  1  0.82264091  0.40426433  0.49136075  1
  Fe  Fe8  1  0.10531879  0.31405433  0.74247610  1
  Fe  Fe9  1  0.49900679  0.51887808  0.72496390  1
  Fe  Fe10  1  0.80856449  0.39890160  -0.00147363  1
  Fe  Fe11  1  0.91008370  0.68464245  0.26704496  1
  Ni  Ni12  1  0.99924306  0.99475668  0.49549026  1
  Ni  Ni13  1  0.10164760  0.30542837  0.25044119  1
  Ni  Ni14  1  0.69947192  0.09823699  0.26396944  1
  Ni  Ni15  1  0.89869385  0.68825754  0.74905510  1
  Ti  Ti16  1  0.01545389  0.99031843  0.01283459  1
  Ti  Ti17  1  0.71066507  0.09492442  0.72451490  1
  Ti  Ti18  1  0.42111948  0.24101715  0.99926559  1
  Ti  Ti19  1  0.57214107  0.76289428  0.01051289  1
