# generated using pymatgen
data_TaCrFeCoNi
_symmetry_space_group_name_H-M   'P 1'
_cell_length_a   5.81849666
_cell_length_b   5.83806982
_cell_length_c   7.29966395
_cell_angle_alpha   89.72359571
_cell_angle_beta   90.00958783
_cell_angle_gamma   89.55405339
_symmetry_Int_Tables_number   1
_chemical_formula_structural   TaCrFeCoNi
_chemical_formula_sum   'Ta4 Cr4 Fe4 Co4 Ni4'
_cell_volume   247.95034912
_cell_formula_units_Z   4
loop_
 _symmetry_equiv_pos_site_id
 _symmetry_equiv_pos_as_xyz
  1  'x, y, z'
loop_
 _atom_site_type_symbol
 _atom_site_label
 _atom_site_symmetry_multiplicity
 _atom_site_fract_x
 _atom_site_fract_y
 _atom_site_fract_z
 _atom_site_occupancy
  Co  Co0  1  0.19776998  0.60767300  0.50230724  1
  Co  Co1  1  0.28462621  0.89725953  0.74051775  1
  Co  Co2  1  0.18458068  0.59310391  0.00046422  1
  Co  Co3  1  0.30032946  0.90608847  0.26320486  1
  Cr  Cr4  1  0.37160664  0.20844718  0.49422421  1
  Cr  Cr5  1  0.49363009  0.49860309  0.29248806  1
  Cr  Cr6  1  0.59531685  0.77799059  0.48028690  1
  Cr  Cr7  1  0.81740047  0.41396712  0.48182489  1
  Fe  Fe8  1  0.11552836  0.31123190  0.74014359  1
  Fe  Fe9  1  0.49693099  0.51667172  0.72381490  1
  Fe  Fe10  1  0.81488335  0.40410835  0.00522510  1
  Fe  Fe11  1  0.91126541  0.68941195  0.26519205  1
  Ni  Ni12  1  0.00325916  0.99290469  0.49204381  1
  Ni  Ni13  1  0.09905735  0.30740516  0.25366698  1
  Ni  Ni14  1  0.70086793  0.09733936  0.27141590  1
  Ni  Ni15  1  0.89928691  0.68427981  0.74455751  1
  Ta  Ta16  1  0.00916346  0.99300037  0.01094320  1
  Ta  Ta17  1  0.70437932  0.09914376  0.71742718  1
  Ta  Ta18  1  0.42813831  0.23756856  0.01062948  1
  Ta  Ta19  1  0.57197908  0.76380148  0.00962216  1
