# generated using pymatgen
data_CrFeCoNiPd
_symmetry_space_group_name_H-M   'P 1'
_cell_length_a   5.71201593
_cell_length_b   5.72269577
_cell_length_c   7.15155093
_cell_angle_alpha   90.38001198
_cell_angle_beta   89.80660999
_cell_angle_gamma   89.88910062
_symmetry_Int_Tables_number   1
_chemical_formula_structural   CrFeCoNiPd
_chemical_formula_sum   'Cr4 Fe4 Co4 Ni4 Pd4'
_cell_volume   233.76390096
_cell_formula_units_Z   4
loop_
 _symmetry_equiv_pos_site_id
 _symmetry_equiv_pos_as_xyz
  1  'x, y, z'
loop_
 _atom_site_type_symbol
 _atom_site_label
 _atom_site_symmetry_multiplicity
 _atom_site_fract_x
 _atom_site_fract_y
 _atom_site_fract_z
 _atom_site_occupancy
  Co  Co0  1  0.20904617  0.59472609  0.49601448  1
  Co  Co1  1  0.29023935  0.89085525  0.73492306  1
  Co  Co2  1  0.18558407  0.59164694  0.00130310  1
  Co  Co3  1  0.29865848  0.89246585  0.26572350  1
  Cr  Cr4  1  0.37594883  0.20307495  0.50818192  1
  Cr  Cr5  1  0.49345948  0.51046916  0.25250748  1
  Cr  Cr6  1  0.59551013  0.78370274  0.49630351  1
  Cr  Cr7  1  0.81140530  0.41177906  0.49587027  1
  Fe  Fe8  1  0.11264831  0.30992143  0.73527854  1
  Fe  Fe9  1  0.50057298  0.50989887  0.72673838  1
  Fe  Fe10  1  0.81138011  0.41457558  0.01432236  1
  Fe  Fe11  1  0.90080278  0.68220718  0.26399767  1
  Ni  Ni12  1  0.00370734  0.99585421  0.49356585  1
  Ni  Ni13  1  0.10365109  0.30834812  0.25697310  1
  Ni  Ni14  1  0.70045637  0.10772842  0.26735870  1
  Ni  Ni15  1  0.90406012  0.68552152  0.74561622  1
  Pd  Pd16  1  0.00334497  0.00058272  0.00656626  1
  Pd  Pd17  1  0.70449404  0.10544103  0.73467808  1
  Pd  Pd18  1  0.40735032  0.21294100  0.00188601  1
  Pd  Pd19  1  0.58767976  0.78825988  0.00219151  1
