# generated using pymatgen
data_NbCrFeCoNi
_symmetry_space_group_name_H-M   'P 1'
_cell_length_a   5.82970743
_cell_length_b   5.85049829
_cell_length_c   7.28247124
_cell_angle_alpha   89.77430720
_cell_angle_beta   89.97107167
_cell_angle_gamma   89.67246938
_symmetry_Int_Tables_number   1
_chemical_formula_structural   NbCrFeCoNi
_chemical_formula_sum   'Nb4 Cr4 Fe4 Co4 Ni4'
_cell_volume   248.37499919
_cell_formula_units_Z   4
loop_
 _symmetry_equiv_pos_site_id
 _symmetry_equiv_pos_as_xyz
  1  'x, y, z'
loop_
 _atom_site_type_symbol
 _atom_site_label
 _atom_site_symmetry_multiplicity
 _atom_site_fract_x
 _atom_site_fract_y
 _atom_site_fract_z
 _atom_site_occupancy
  Co  Co0  1  0.19704053  0.60711238  0.50080571  1
  Co  Co1  1  0.28062315  0.89416687  0.73871505  1
  Co  Co2  1  0.18499276  0.59253563  -0.00013777  1
  Co  Co3  1  0.29822646  0.90543861  0.26536881  1
  Cr  Cr4  1  0.37375551  0.20729650  0.49490520  1
  Cr  Cr5  1  0.49422011  0.49870904  0.29078283  1
  Cr  Cr6  1  0.59688901  0.77963851  0.47835569  1
  Cr  Cr7  1  0.81800103  0.40980008  0.48454421  1
  Fe  Fe8  1  0.11912440  0.31177230  0.73796983  1
  Fe  Fe9  1  0.49797744  0.52239480  0.72292077  1
  Fe  Fe10  1  0.81376365  0.40792674  0.00633290  1
  Fe  Fe11  1  0.91244945  0.68965453  0.26662814  1
  Ni  Ni12  1  0.00227439  0.99283281  0.49423852  1
  Ni  Ni13  1  0.09851962  0.30764429  0.25399375  1
  Ni  Ni14  1  0.70194275  0.09871477  0.27164845  1
  Ni  Ni15  1  0.90010475  0.68065450  0.74310695  1
  Nb  Nb16  1  0.00962250  0.99336187  0.00865312  1
  Nb  Nb17  1  0.70117804  0.09910017  0.71879386  1
  Nb  Nb18  1  0.42749508  0.23640121  0.01069596  1
  Nb  Nb19  1  0.57179939  0.76484440  0.01167802  1
