# generated using pymatgen
data_CrFeCoNiIr
_symmetry_space_group_name_H-M   'P 1'
_cell_length_a   5.72169240
_cell_length_b   5.71077969
_cell_length_c   7.14600293
_cell_angle_alpha   90.26069033
_cell_angle_beta   89.95396487
_cell_angle_gamma   89.81213178
_symmetry_Int_Tables_number   1
_chemical_formula_structural   CrFeCoNiIr
_chemical_formula_sum   'Cr4 Fe4 Co4 Ni4 Ir4'
_cell_volume   233.49421609
_cell_formula_units_Z   4
loop_
 _symmetry_equiv_pos_site_id
 _symmetry_equiv_pos_as_xyz
  1  'x, y, z'
loop_
 _atom_site_type_symbol
 _atom_site_label
 _atom_site_symmetry_multiplicity
 _atom_site_fract_x
 _atom_site_fract_y
 _atom_site_fract_z
 _atom_site_occupancy
  Co  Co0  1  0.21060712  0.59208437  0.49856152  1
  Co  Co1  1  0.29840133  0.89632606  0.74417607  1
  Co  Co2  1  0.19263573  0.59663426  0.99789385  1
  Co  Co3  1  0.30115553  0.89575975  0.26057393  1
  Cr  Cr4  1  0.37581204  0.19869937  0.50481396  1
  Cr  Cr5  1  0.48686936  0.50536382  0.25260558  1
  Cr  Cr6  1  0.60271229  0.78901662  0.49971903  1
  Cr  Cr7  1  0.80538838  0.41355821  0.49802138  1
  Fe  Fe8  1  0.11416339  0.29822221  0.73855356  1
  Fe  Fe9  1  0.49614241  0.50813640  0.74081490  1
  Fe  Fe10  1  0.81135121  0.40510306  0.00285269  1
  Fe  Fe11  1  0.90152776  0.70001614  0.26239951  1
  Ni  Ni12  1  0.00321435  0.99636392  0.49396804  1
  Ni  Ni13  1  0.09683365  0.30504336  0.25621883  1
  Ni  Ni14  1  0.69738260  0.09912121  0.26062100  1
  Ni  Ni15  1  0.90361883  0.69581291  0.74509120  1
  Ir  Ir16  1  0.00240685  0.99775367  0.00338396  1
  Ir  Ir17  1  0.70034649  0.10910236  0.73095624  1
  Ir  Ir18  1  0.40322804  0.21297736  0.00199318  1
  Ir  Ir19  1  0.59620264  0.78490493  0.00678158  1
