# generated using pymatgen
data_CrFeCoNiAu
_symmetry_space_group_name_H-M   'P 1'
_cell_length_a   5.89711496
_cell_length_b   5.90134040
_cell_length_c   7.23871896
_cell_angle_alpha   90.24296628
_cell_angle_beta   89.42264607
_cell_angle_gamma   90.42126776
_symmetry_Int_Tables_number   1
_chemical_formula_structural   CrFeCoNiAu
_chemical_formula_sum   'Cr4 Fe4 Co4 Ni4 Au4'
_cell_volume   251.89202494
_cell_formula_units_Z   4
loop_
 _symmetry_equiv_pos_site_id
 _symmetry_equiv_pos_as_xyz
  1  'x, y, z'
loop_
 _atom_site_type_symbol
 _atom_site_label
 _atom_site_symmetry_multiplicity
 _atom_site_fract_x
 _atom_site_fract_y
 _atom_site_fract_z
 _atom_site_occupancy
  Co  Co0  1  0.19433583  0.60738244  0.49758030  1
  Co  Co1  1  0.28552774  0.87791579  0.73147338  1
  Co  Co2  1  0.17988729  0.59798617  0.99079802  1
  Co  Co3  1  0.29287723  0.89218818  0.27153927  1
  Cr  Cr4  1  0.37369369  0.20188587  0.49440289  1
  Cr  Cr5  1  0.51414460  0.49506106  0.28658671  1
  Cr  Cr6  1  0.59575600  0.78816986  0.48148653  1
  Cr  Cr7  1  0.82018647  0.40412810  0.48524200  1
  Fe  Fe8  1  0.10655617  0.31917496  0.73844589  1
  Fe  Fe9  1  0.49675364  0.51543591  0.72256242  1
  Fe  Fe10  1  0.81735251  0.41625052  0.02162720  1
  Fe  Fe11  1  0.91322444  0.68276111  0.26086331  1
  Ni  Ni12  1  0.00407633  0.99358113  0.49238189  1
  Ni  Ni13  1  0.10133369  0.31244506  0.25901171  1
  Ni  Ni14  1  0.70417318  0.10347167  0.26984214  1
  Ni  Ni15  1  0.89988162  0.68166461  0.73991807  1
  Au  Au16  1  0.00502740  0.00173854  0.00600514  1
  Au  Au17  1  0.70060163  0.10525721  0.73210311  1
  Au  Au18  1  0.41045247  0.22281778  0.00938522  1
  Au  Au19  1  0.58415805  0.78068404  0.00874480  1
