# generated using pymatgen
data_AlN
_symmetry_space_group_name_H-M   'P 1'
_cell_length_a   6.25913433
_cell_length_b   6.25905097
_cell_length_c   5.00998827
_cell_angle_alpha   90.00001070
_cell_angle_beta   90.00000000
_cell_angle_gamma   120.00044052
_symmetry_Int_Tables_number   1
_chemical_formula_structural   AlN
_chemical_formula_sum   'Al8 N8'
_cell_volume   169.97622242
_cell_formula_units_Z   8
loop_
 _symmetry_equiv_pos_site_id
 _symmetry_equiv_pos_as_xyz
  1  'x, y, z'
loop_
 _atom_site_type_symbol
 _atom_site_label
 _atom_site_symmetry_multiplicity
 _atom_site_fract_x
 _atom_site_fract_y
 _atom_site_fract_z
 _atom_site_occupancy
  Al  Al0  1  0.16666589  0.33333161  0.50002010  1
  Al  Al1  1  0.33333427  0.16666854  0.00002013  1
  Al  Al2  1  0.66666573  0.33333161  0.50002010  1
  Al  Al3  1  0.66666572  0.83333142  0.50002047  1
  Al  Al4  1  0.16666578  0.83333155  0.50002003  1
  Al  Al5  1  0.33333441  0.66666852  0.00002028  1
  Al  Al6  1  0.83333418  0.16666837  0.00001982  1
  Al  Al7  1  0.83333410  0.66666852  0.00002028  1
  N  N8  1  0.16666567  0.33333132  0.88197985  1
  N  N9  1  0.33333438  0.16666878  0.38197986  1
  N  N10  1  0.16666555  0.83333109  0.88197982  1
  N  N11  1  0.33333443  0.66666874  0.38197991  1
  N  N12  1  0.66666567  0.33333132  0.88197985  1
  N  N13  1  0.83333435  0.16666871  0.38197966  1
  N  N14  1  0.66666558  0.83333116  0.88197992  1
  N  N15  1  0.83333431  0.66666874  0.38197991  1
