# generated using pymatgen
data_AlCrN2
_symmetry_space_group_name_H-M   'P 1'
_cell_length_a   6.22043040
_cell_length_b   6.30190568
_cell_length_c   4.94337820
_cell_angle_alpha   91.48053574
_cell_angle_beta   90.00000000
_cell_angle_gamma   119.57323661
_symmetry_Int_Tables_number   1
_chemical_formula_structural   AlCrN2
_chemical_formula_sum   'Al4 Cr4 N8'
_cell_volume   168.46383413
_cell_formula_units_Z   4
loop_
 _symmetry_equiv_pos_site_id
 _symmetry_equiv_pos_as_xyz
  1  'x, y, z'
loop_
 _atom_site_type_symbol
 _atom_site_label
 _atom_site_symmetry_multiplicity
 _atom_site_fract_x
 _atom_site_fract_y
 _atom_site_fract_z
 _atom_site_occupancy
  Al  Al0  1  0.16455558  0.33076990  0.50368930  1
  Al  Al1  1  0.33245219  0.16490439  0.99534869  1
  Al  Al2  1  0.66621434  0.33076990  0.50368930  1
  Al  Al3  1  0.66818239  0.83636478  0.51924217  1
  N  N4  1  0.16648345  0.33961715  0.89095148  1
  N  N5  1  0.33708271  0.17416543  0.37915102  1
  N  N6  1  0.17001390  0.84002778  0.84393922  1
  N  N7  1  0.33984099  0.65757012  0.39139796  1
  N  N8  1  0.67313371  0.33961715  0.89095148  1
  N  N9  1  0.82953638  0.15907276  0.39897960  1
  N  N10  1  0.66622456  0.83244911  0.91380219  1
  N  N11  1  0.81772914  0.65757012  0.39139796  1
  Cr  Cr12  1  0.16173079  0.82346158  0.42132730  1
  Cr  Cr13  1  0.32071584  0.67408129  0.00873186  1
  Cr  Cr14  1  0.83273860  0.16547721  0.99466865  1
  Cr  Cr15  1  0.85336544  0.67408129  0.00873186  1
