# generated using pymatgen
data_Al3BN4
_symmetry_space_group_name_H-M   'P 1'
_cell_length_a   6.02834897
_cell_length_b   6.02834897
_cell_length_c   4.80519341
_cell_angle_alpha   89.70774988
_cell_angle_beta   90.29225009
_cell_angle_gamma   120.17204974
_symmetry_Int_Tables_number   1
_chemical_formula_structural   Al3BN4
_chemical_formula_sum   'Al6 B2 N8'
_cell_volume   150.96463107
_cell_formula_units_Z   2
loop_
 _symmetry_equiv_pos_site_id
 _symmetry_equiv_pos_as_xyz
  1  'x, y, z'
loop_
 _atom_site_type_symbol
 _atom_site_label
 _atom_site_symmetry_multiplicity
 _atom_site_fract_x
 _atom_site_fract_y
 _atom_site_fract_z
 _atom_site_occupancy
  Al  Al0  1  0.16229881  0.33770119  0.49333824  1
  Al  Al1  1  0.33439868  0.16560132  0.00162967  1
  Al  Al2  1  0.17210309  0.82789691  0.50158826  1
  Al  Al3  1  0.67210309  0.32789691  0.50158826  1
  Al  Al4  1  0.66229881  0.83770119  0.49333824  1
  Al  Al5  1  0.83439868  0.66560132  0.00162967  1
  N  N6  1  0.15330204  0.34669796  0.89377645  1
  N  N7  1  0.33271138  0.16728862  0.39319956  1
  N  N8  1  0.18475932  0.81524068  0.89480118  1
  N  N9  1  0.33327184  0.66672816  0.33753482  1
  N  N10  1  0.68475932  0.31524068  0.89480118  1
  N  N11  1  0.83327184  0.16672816  0.33753482  1
  N  N12  1  0.65330204  0.84669796  0.89377645  1
  N  N13  1  0.83271138  0.66728862  0.39319956  1
  B  B14  1  0.32715486  0.67284514  0.01213182  1
  B  B15  1  0.82715486  0.17284514  0.01213182  1
