# generated using pymatgen
data_AlN
_symmetry_space_group_name_H-M   'P 1'
_cell_length_a   6.25913647
_cell_length_b   6.25913648
_cell_length_c   5.00999049
_cell_angle_alpha   90.00000021
_cell_angle_beta   89.99999977
_cell_angle_gamma   120.00176975
_symmetry_Int_Tables_number   1
_chemical_formula_structural   AlN
_chemical_formula_sum   'Al8 N8'
_cell_volume   169.97640132
_cell_formula_units_Z   8
loop_
 _symmetry_equiv_pos_site_id
 _symmetry_equiv_pos_as_xyz
  1  'x, y, z'
loop_
 _atom_site_type_symbol
 _atom_site_label
 _atom_site_symmetry_multiplicity
 _atom_site_fract_x
 _atom_site_fract_y
 _atom_site_fract_z
 _atom_site_occupancy
  Al  Al0  1  0.16666848  0.33333152  0.50002020  1
  Al  Al1  1  0.33333148  0.16666852  0.00002024  1
  Al  Al2  1  0.16666846  0.83333154  0.50002013  1
  Al  Al3  1  0.66666846  0.33333154  0.50002013  1
  Al  Al4  1  0.66666848  0.83333152  0.50002020  1
  Al  Al5  1  0.83333148  0.66666852  0.00002024  1
  Al  Al6  1  0.33333158  0.66666842  0.00002009  1
  Al  Al7  1  0.83333158  0.16666842  0.00002009  1
  N  N8  1  0.16666876  0.33333124  0.88197988  1
  N  N9  1  0.33333124  0.16666876  0.38197988  1
  N  N10  1  0.16666881  0.83333119  0.88197975  1
  N  N11  1  0.33333118  0.66666882  0.38197983  1
  N  N12  1  0.66666881  0.33333119  0.88197975  1
  N  N13  1  0.83333118  0.16666882  0.38197983  1
  N  N14  1  0.66666876  0.83333124  0.88197988  1
  N  N15  1  0.83333124  0.66666876  0.38197988  1
