# generated using pymatgen
data_Al3VN4
_symmetry_space_group_name_H-M   'P 1'
_cell_length_a   6.33764155
_cell_length_b   6.33764156
_cell_length_c   5.00470076
_cell_angle_alpha   90.92644472
_cell_angle_beta   89.07355524
_cell_angle_gamma   120.24597718
_symmetry_Int_Tables_number   1
_chemical_formula_structural   Al3VN4
_chemical_formula_sum   'Al6 V2 N8'
_cell_volume   173.62280716
_cell_formula_units_Z   2
loop_
 _symmetry_equiv_pos_site_id
 _symmetry_equiv_pos_as_xyz
  1  'x, y, z'
loop_
 _atom_site_type_symbol
 _atom_site_label
 _atom_site_symmetry_multiplicity
 _atom_site_fract_x
 _atom_site_fract_y
 _atom_site_fract_z
 _atom_site_occupancy
  Al  Al0  1  0.16770420  0.33229580  0.49785553  1
  Al  Al1  1  0.33540555  0.16459445  0.00396457  1
  Al  Al2  1  0.16546551  0.83453449  0.49722404  1
  Al  Al3  1  0.66546551  0.33453449  0.49722404  1
  Al  Al4  1  0.66770420  0.83229580  0.49785553  1
  Al  Al5  1  0.83540555  0.66459445  0.00396457  1
  N  N6  1  0.16978394  0.33021606  0.88798124  1
  N  N7  1  0.33366266  0.16633734  0.38365299  1
  N  N8  1  0.16013792  0.83986208  0.87762867  1
  N  N9  1  0.33424256  0.66575744  0.39345128  1
  N  N10  1  0.66013792  0.33986208  0.87762867  1
  N  N11  1  0.83424256  0.16575744  0.39345128  1
  N  N12  1  0.66978394  0.83021606  0.88798124  1
  N  N13  1  0.83366266  0.66633734  0.38365299  1
  V  V14  1  0.33359767  0.66640233  0.98624168  1
  V  V15  1  0.83359767  0.16640233  0.98624168  1
