# generated using pymatgen
data_MnAl3N4
_symmetry_space_group_name_H-M   'P 1'
_cell_length_a   6.23994931
_cell_length_b   6.23994931
_cell_length_c   5.01614350
_cell_angle_alpha   90.96081475
_cell_angle_beta   89.03918523
_cell_angle_gamma   119.78031503
_symmetry_Int_Tables_number   1
_chemical_formula_structural   MnAl3N4
_chemical_formula_sum   'Mn2 Al6 N8'
_cell_volume   169.48772233
_cell_formula_units_Z   2
loop_
 _symmetry_equiv_pos_site_id
 _symmetry_equiv_pos_as_xyz
  1  'x, y, z'
loop_
 _atom_site_type_symbol
 _atom_site_label
 _atom_site_symmetry_multiplicity
 _atom_site_fract_x
 _atom_site_fract_y
 _atom_site_fract_z
 _atom_site_occupancy
  Al  Al0  1  0.16575413  0.33424587  0.49532960  1
  Al  Al1  1  0.33585448  0.16414552  0.00598047  1
  Al  Al2  1  0.16625366  0.83374634  0.49864152  1
  Al  Al3  1  0.66625366  0.33374634  0.49864152  1
  Al  Al4  1  0.66575413  0.83424587  0.49532960  1
  Al  Al5  1  0.83585448  0.66414552  0.00598047  1
  N  N6  1  0.16352619  0.33647381  0.88840792  1
  N  N7  1  0.33342159  0.16657841  0.38366202  1
  N  N8  1  0.16349985  0.83650015  0.87820889  1
  N  N9  1  0.33446902  0.66553098  0.38678497  1
  N  N10  1  0.66349985  0.33650015  0.87820889  1
  N  N11  1  0.83446902  0.16553098  0.38678497  1
  N  N12  1  0.66352619  0.83647381  0.88840792  1
  N  N13  1  0.83342159  0.66657841  0.38366202  1
  Mn  Mn14  1  0.33722109  0.66277891  0.99098461  1
  Mn  Mn15  1  0.83722109  0.16277891  0.99098461  1
