# generated using pymatgen
data_Al3FeN4
_symmetry_space_group_name_H-M   'P 1'
_cell_length_a   6.22037761
_cell_length_b   6.22037761
_cell_length_c   4.99980954
_cell_angle_alpha   90.99164648
_cell_angle_beta   89.00835357
_cell_angle_gamma   119.32784447
_symmetry_Int_Tables_number   1
_chemical_formula_structural   Al3FeN4
_chemical_formula_sum   'Al6 Fe2 N8'
_cell_volume   168.62893853
_cell_formula_units_Z   2
loop_
 _symmetry_equiv_pos_site_id
 _symmetry_equiv_pos_as_xyz
  1  'x, y, z'
loop_
 _atom_site_type_symbol
 _atom_site_label
 _atom_site_symmetry_multiplicity
 _atom_site_fract_x
 _atom_site_fract_y
 _atom_site_fract_z
 _atom_site_occupancy
  Al  Al0  1  0.16498173  0.33501827  0.49404472  1
  Al  Al1  1  0.33636981  0.16363019  0.00667728  1
  Al  Al2  1  0.16606158  0.83393842  0.49912766  1
  Al  Al3  1  0.66606158  0.33393842  0.49912766  1
  Al  Al4  1  0.66498173  0.83501827  0.49404472  1
  Al  Al5  1  0.83636981  0.66363019  0.00667728  1
  N  N6  1  0.16220051  0.33779949  0.88864568  1
  N  N7  1  0.33356826  0.16643174  0.38511618  1
  N  N8  1  0.16361010  0.83638990  0.87902317  1
  N  N9  1  0.33472767  0.66527233  0.38399666  1
  N  N10  1  0.66361010  0.33638990  0.87902317  1
  N  N11  1  0.83472767  0.16527233  0.38399666  1
  N  N12  1  0.66220051  0.83779949  0.88864568  1
  N  N13  1  0.83356826  0.66643174  0.38511618  1
  Fe  Fe14  1  0.33848032  0.66151968  0.99136867  1
  Fe  Fe15  1  0.83848032  0.16151968  0.99136867  1
