# generated using pymatgen
data_Al3CoN4
_symmetry_space_group_name_H-M   'P 1'
_cell_length_a   6.24642563
_cell_length_b   6.24642563
_cell_length_c   4.96424620
_cell_angle_alpha   90.61184194
_cell_angle_beta   89.38815808
_cell_angle_gamma   119.52359354
_symmetry_Int_Tables_number   1
_chemical_formula_structural   Al3CoN4
_chemical_formula_sum   'Al6 Co2 N8'
_cell_volume   168.53062399
_cell_formula_units_Z   2
loop_
 _symmetry_equiv_pos_site_id
 _symmetry_equiv_pos_as_xyz
  1  'x, y, z'
loop_
 _atom_site_type_symbol
 _atom_site_label
 _atom_site_symmetry_multiplicity
 _atom_site_fract_x
 _atom_site_fract_y
 _atom_site_fract_z
 _atom_site_occupancy
  Al  Al0  1  0.16471989  0.33528011  0.49226090  1
  Al  Al1  1  0.33631208  0.16368792  0.00786405  1
  Al  Al2  1  0.16570561  0.83429439  0.50084068  1
  Al  Al3  1  0.66570561  0.33429439  0.50084068  1
  Al  Al4  1  0.66471989  0.83528011  0.49226090  1
  Al  Al5  1  0.83631208  0.66368792  0.00786405  1
  N  N6  1  0.16491819  0.33508181  0.88717714  1
  N  N7  1  0.33295915  0.16704085  0.38797806  1
  N  N8  1  0.16297686  0.83702314  0.88282213  1
  N  N9  1  0.33342034  0.66657966  0.38337310  1
  N  N10  1  0.66297686  0.33702314  0.88282213  1
  N  N11  1  0.83342034  0.16657966  0.38337310  1
  N  N12  1  0.66491819  0.83508181  0.88717714  1
  N  N13  1  0.83295915  0.66704085  0.38797806  1
  Co  Co14  1  0.33898788  0.66101212  0.98568396  1
  Co  Co15  1  0.83898788  0.16101212  0.98568396  1
