# generated using pymatgen
data_Al3NiN4
_symmetry_space_group_name_H-M   'P 1'
_cell_length_a   6.33505462
_cell_length_b   6.33505463
_cell_length_c   4.93129362
_cell_angle_alpha   90.37398055
_cell_angle_beta   89.62601947
_cell_angle_gamma   120.76435900
_symmetry_Int_Tables_number   1
_chemical_formula_structural   Al3NiN4
_chemical_formula_sum   'Al6 Ni2 N8'
_cell_volume   170.05255715
_cell_formula_units_Z   2
loop_
 _symmetry_equiv_pos_site_id
 _symmetry_equiv_pos_as_xyz
  1  'x, y, z'
loop_
 _atom_site_type_symbol
 _atom_site_label
 _atom_site_symmetry_multiplicity
 _atom_site_fract_x
 _atom_site_fract_y
 _atom_site_fract_z
 _atom_site_occupancy
  Al  Al0  1  0.16696280  0.33303720  0.49143453  1
  Al  Al1  1  0.33587909  0.16412091  0.00800548  1
  Al  Al2  1  0.16599798  0.83400202  0.50118199  1
  Al  Al3  1  0.66599798  0.33400202  0.50118199  1
  Al  Al4  1  0.66696280  0.83303720  0.49143453  1
  Al  Al5  1  0.83587909  0.66412091  0.00800548  1
  N  N6  1  0.17095363  0.32904637  0.88693579  1
  N  N7  1  0.33288547  0.16711453  0.38902364  1
  N  N8  1  0.16001002  0.83998998  0.88426211  1
  N  N9  1  0.33243969  0.66756031  0.38999262  1
  N  N10  1  0.66001002  0.33998998  0.88426211  1
  N  N11  1  0.83243969  0.16756031  0.38999262  1
  N  N12  1  0.67095363  0.82904637  0.88693579  1
  N  N13  1  0.83288547  0.66711453  0.38902364  1
  Ni  Ni14  1  0.33487133  0.66512867  0.97716384  1
  Ni  Ni15  1  0.83487133  0.16512867  0.97716384  1
