# generated using pymatgen
data_YAl3N4
_symmetry_space_group_name_H-M   'P 1'
_cell_length_a   6.66506222
_cell_length_b   6.66506222
_cell_length_c   5.19174059
_cell_angle_alpha   90.74936435
_cell_angle_beta   89.25063567
_cell_angle_gamma   121.03307916
_symmetry_Int_Tables_number   1
_chemical_formula_structural   YAl3N4
_chemical_formula_sum   'Y2 Al6 N8'
_cell_volume   197.60012661
_cell_formula_units_Z   2
loop_
 _symmetry_equiv_pos_site_id
 _symmetry_equiv_pos_as_xyz
  1  'x, y, z'
loop_
 _atom_site_type_symbol
 _atom_site_label
 _atom_site_symmetry_multiplicity
 _atom_site_fract_x
 _atom_site_fract_y
 _atom_site_fract_z
 _atom_site_occupancy
  Al  Al0  1  0.17293039  0.32706961  0.50645153  1
  Al  Al1  1  0.33251026  0.16748974  0.99326962  1
  Al  Al2  1  0.16111692  0.83888308  0.50197571  1
  Al  Al3  1  0.66111692  0.33888308  0.50197571  1
  Al  Al4  1  0.67293039  0.82706961  0.50645153  1
  Al  Al5  1  0.83251026  0.66748974  0.99326962  1
  N  N6  1  0.18573880  0.31426120  0.86363716  1
  N  N7  1  0.33492023  0.16507977  0.36990432  1
  N  N8  1  0.14868310  0.85131690  0.86780802  1
  N  N9  1  0.33250136  0.66749864  0.43469846  1
  N  N10  1  0.64868310  0.35131690  0.86780802  1
  N  N11  1  0.83250136  0.16749864  0.43469846  1
  N  N12  1  0.68573880  0.81426120  0.86363716  1
  N  N13  1  0.83492023  0.66507977  0.36990432  1
  Y  Y14  1  0.33159893  0.66840107  0.99025519  1
  Y  Y15  1  0.83159893  0.16840107  0.99025519  1
