# generated using pymatgen
data_ZrAl3N4
_symmetry_space_group_name_H-M   'P 1'
_cell_length_a   6.56138201
_cell_length_b   6.56138201
_cell_length_c   5.22001741
_cell_angle_alpha   89.07583116
_cell_angle_beta   90.92416885
_cell_angle_gamma   122.27760349
_symmetry_Int_Tables_number   1
_chemical_formula_structural   ZrAl3N4
_chemical_formula_sum   'Zr2 Al6 N8'
_cell_volume   189.97107003
_cell_formula_units_Z   2
loop_
 _symmetry_equiv_pos_site_id
 _symmetry_equiv_pos_as_xyz
  1  'x, y, z'
loop_
 _atom_site_type_symbol
 _atom_site_label
 _atom_site_symmetry_multiplicity
 _atom_site_fract_x
 _atom_site_fract_y
 _atom_site_fract_z
 _atom_site_occupancy
  Al  Al0  1  0.17199792  0.32800208  0.50711204  1
  Al  Al1  1  0.33546711  0.16453289  0.99374678  1
  Al  Al2  1  0.16106568  0.83893432  0.50015034  1
  Al  Al3  1  0.66106568  0.33893432  0.50015034  1
  Al  Al4  1  0.67199792  0.82800208  0.50711204  1
  Al  Al5  1  0.83546711  0.66453289  0.99374678  1
  N  N6  1  0.18753196  0.31246804  0.85920661  1
  N  N7  1  0.33243460  0.16756540  0.36831896  1
  N  N8  1  0.15678640  0.84321360  0.86601916  1
  N  N9  1  0.32969613  0.67030387  0.42023938  1
  N  N10  1  0.65678640  0.34321360  0.86601916  1
  N  N11  1  0.82969613  0.17030387  0.42023938  1
  N  N12  1  0.68753196  0.81246804  0.85920661  1
  N  N13  1  0.83243460  0.66756540  0.36831896  1
  Zr  Zr14  1  0.32502020  0.67497980  0.01320672  1
  Zr  Zr15  1  0.82502020  0.17497980  0.01320672  1
