# generated using pymatgen
data_NbAl3N4
_symmetry_space_group_name_H-M   'P 1'
_cell_length_a   6.49284186
_cell_length_b   6.49284186
_cell_length_c   5.22260194
_cell_angle_alpha   88.27926395
_cell_angle_beta   91.72073610
_cell_angle_gamma   123.41949667
_symmetry_Int_Tables_number   1
_chemical_formula_structural   NbAl3N4
_chemical_formula_sum   'Nb2 Al6 N8'
_cell_volume   183.65965793
_cell_formula_units_Z   2
loop_
 _symmetry_equiv_pos_site_id
 _symmetry_equiv_pos_as_xyz
  1  'x, y, z'
loop_
 _atom_site_type_symbol
 _atom_site_label
 _atom_site_symmetry_multiplicity
 _atom_site_fract_x
 _atom_site_fract_y
 _atom_site_fract_z
 _atom_site_occupancy
  Al  Al0  1  0.16744572  0.33255428  0.49854696  1
  Al  Al1  1  0.33646754  0.16353246  0.00118021  1
  Al  Al2  1  0.16204137  0.83795863  0.50138068  1
  Al  Al3  1  0.66204137  0.33795863  0.50138068  1
  Al  Al4  1  0.66744572  0.83255428  0.49854696  1
  Al  Al5  1  0.83646754  0.66353246  0.00118021  1
  N  N6  1  0.18835987  0.31164013  0.85499143  1
  N  N7  1  0.32936604  0.17063396  0.37061071  1
  N  N8  1  0.16336521  0.83663479  0.87180652  1
  N  N9  1  0.32543260  0.67456740  0.41651228  1
  N  N10  1  0.66336521  0.33663479  0.87180652  1
  N  N11  1  0.82543260  0.17456740  0.41651228  1
  N  N12  1  0.68835987  0.81164013  0.85499143  1
  N  N13  1  0.82936604  0.67063396  0.37061071  1
  Nb  Nb14  1  0.32752165  0.67247835  0.01297120  1
  Nb  Nb15  1  0.82752165  0.17247835  0.01297120  1
