# generated using pymatgen
data_HfAl3N4
_symmetry_space_group_name_H-M   'P 1'
_cell_length_a   6.52752908
_cell_length_b   6.52752909
_cell_length_c   5.21942683
_cell_angle_alpha   88.83909670
_cell_angle_beta   91.16090326
_cell_angle_gamma   121.95121478
_symmetry_Int_Tables_number   1
_chemical_formula_structural   HfAl3N4
_chemical_formula_sum   'Hf2 Al6 N8'
_cell_volume   188.64928761
_cell_formula_units_Z   2
loop_
 _symmetry_equiv_pos_site_id
 _symmetry_equiv_pos_as_xyz
  1  'x, y, z'
loop_
 _atom_site_type_symbol
 _atom_site_label
 _atom_site_symmetry_multiplicity
 _atom_site_fract_x
 _atom_site_fract_y
 _atom_site_fract_z
 _atom_site_occupancy
  Al  Al0  1  0.17177354  0.32822646  0.50749495  1
  Al  Al1  1  0.33639466  0.16360534  0.99408149  1
  Al  Al2  1  0.16115954  0.83884046  0.49923662  1
  Al  Al3  1  0.66115954  0.33884046  0.49923662  1
  Al  Al4  1  0.67177354  0.82822646  0.50749495  1
  Al  Al5  1  0.83639466  0.66360534  0.99408149  1
  N  N6  1  0.18599559  0.31400441  0.86109072  1
  N  N7  1  0.33184578  0.16815422  0.36894566  1
  N  N8  1  0.15796462  0.84203538  0.86559318  1
  N  N9  1  0.32990305  0.67009695  0.41608038  1
  N  N10  1  0.65796462  0.34203538  0.86559318  1
  N  N11  1  0.82990305  0.17009695  0.41608038  1
  N  N12  1  0.68599559  0.81400441  0.86109072  1
  N  N13  1  0.83184578  0.66815422  0.36894566  1
  Hf  Hf14  1  0.32496322  0.67503678  0.01547700  1
  Hf  Hf15  1  0.82496322  0.17503678  0.01547700  1
