# generated using pymatgen
data_TaAl3N4
_symmetry_space_group_name_H-M   'P 1'
_cell_length_a   6.45774570
_cell_length_b   6.45774571
_cell_length_c   5.22664526
_cell_angle_alpha   87.81418603
_cell_angle_beta   92.18581400
_cell_angle_gamma   123.01597616
_symmetry_Int_Tables_number   1
_chemical_formula_structural   TaAl3N4
_chemical_formula_sum   'Ta2 Al6 N8'
_cell_volume   182.59476062
_cell_formula_units_Z   2
loop_
 _symmetry_equiv_pos_site_id
 _symmetry_equiv_pos_as_xyz
  1  'x, y, z'
loop_
 _atom_site_type_symbol
 _atom_site_label
 _atom_site_symmetry_multiplicity
 _atom_site_fract_x
 _atom_site_fract_y
 _atom_site_fract_z
 _atom_site_occupancy
  Al  Al0  1  0.16664069  0.33335931  0.49756588  1
  Al  Al1  1  0.33809438  0.16190562  0.00193584  1
  Al  Al2  1  0.16161333  0.83838667  0.50072223  1
  Al  Al3  1  0.66161333  0.33838667  0.50072223  1
  Al  Al4  1  0.66664069  0.83335931  0.49756588  1
  Al  Al5  1  0.83809438  0.66190562  0.00193584  1
  N  N6  1  0.18831803  0.31168197  0.85449412  1
  N  N7  1  0.32861739  0.17138261  0.37016547  1
  N  N8  1  0.16396177  0.83603823  0.87046371  1
  N  N9  1  0.32488665  0.67511335  0.41682641  1
  N  N10  1  0.66396177  0.33603823  0.87046371  1
  N  N11  1  0.82488665  0.17511335  0.41682641  1
  N  N12  1  0.68831803  0.81168197  0.85449412  1
  N  N13  1  0.82861739  0.67138261  0.37016547  1
  Ta  Ta14  1  0.32786776  0.67213224  0.01582634  1
  Ta  Ta15  1  0.82786776  0.17213224  0.01582634  1
