# generated using pymatgen
data_Al3WN4
_symmetry_space_group_name_H-M   'P 1'
_cell_length_a   6.38411252
_cell_length_b   6.38411252
_cell_length_c   5.26341736
_cell_angle_alpha   89.02461226
_cell_angle_beta   90.97538768
_cell_angle_gamma   123.45941509
_symmetry_Int_Tables_number   1
_chemical_formula_structural   Al3WN4
_chemical_formula_sum   'Al6 W2 N8'
_cell_volume   178.93602447
_cell_formula_units_Z   2
loop_
 _symmetry_equiv_pos_site_id
 _symmetry_equiv_pos_as_xyz
  1  'x, y, z'
loop_
 _atom_site_type_symbol
 _atom_site_label
 _atom_site_symmetry_multiplicity
 _atom_site_fract_x
 _atom_site_fract_y
 _atom_site_fract_z
 _atom_site_occupancy
  Al  Al0  1  0.16966194  0.33033806  0.50238526  1
  Al  Al1  1  0.33844366  0.16155634  0.00177987  1
  Al  Al2  1  0.16286113  0.83713887  0.49832316  1
  Al  Al3  1  0.66286113  0.33713887  0.49832316  1
  Al  Al4  1  0.66966194  0.83033806  0.50238526  1
  Al  Al5  1  0.83844366  0.66155634  0.00177987  1
  N  N6  1  0.18363712  0.31636288  0.86145065  1
  N  N7  1  0.32896987  0.17103013  0.36833717  1
  N  N8  1  0.16280716  0.83719284  0.86185713  1
  N  N9  1  0.32810105  0.67189895  0.41100796  1
  N  N10  1  0.66280716  0.33719284  0.86185713  1
  N  N11  1  0.82810105  0.17189895  0.41100796  1
  N  N12  1  0.68363712  0.81636288  0.86145065  1
  N  N13  1  0.82896987  0.67103013  0.36833717  1
  W  W14  1  0.32551806  0.67448194  0.02285880  1
  W  W15  1  0.82551806  0.17448194  0.02285880  1
