# generated using pymatgen
data_Al3OsN4
_symmetry_space_group_name_H-M   'P 1'
_cell_length_a   6.40698045
_cell_length_b   6.40698045
_cell_length_c   5.11905505
_cell_angle_alpha   88.23321919
_cell_angle_beta   91.76678087
_cell_angle_gamma   121.83867703
_symmetry_Int_Tables_number   1
_chemical_formula_structural   Al3OsN4
_chemical_formula_sum   'Al6 Os2 N8'
_cell_volume   178.40554954
_cell_formula_units_Z   2
loop_
 _symmetry_equiv_pos_site_id
 _symmetry_equiv_pos_as_xyz
  1  'x, y, z'
loop_
 _atom_site_type_symbol
 _atom_site_label
 _atom_site_symmetry_multiplicity
 _atom_site_fract_x
 _atom_site_fract_y
 _atom_site_fract_z
 _atom_site_occupancy
  Al  Al0  1  0.16504779  0.33495221  0.47876853  1
  Al  Al1  1  0.33797468  0.16202532  0.01888887  1
  Al  Al2  1  0.16272802  0.83727198  0.51366057  1
  Al  Al3  1  0.66272802  0.33727198  0.51366057  1
  Al  Al4  1  0.66504779  0.83495221  0.47876853  1
  Al  Al5  1  0.83797468  0.66202532  0.01888887  1
  N  N6  1  0.18199440  0.31800560  0.85789795  1
  N  N7  1  0.32991583  0.17008417  0.38704062  1
  N  N8  1  0.15760935  0.84239065  0.88888449  1
  N  N9  1  0.32537295  0.67462705  0.40444063  1
  N  N10  1  0.65760935  0.34239065  0.88888449  1
  N  N11  1  0.82537295  0.17462705  0.40444063  1
  N  N12  1  0.68199440  0.81800560  0.85789795  1
  N  N13  1  0.82991583  0.67008417  0.38704062  1
  Os  Os14  1  0.33935697  0.66064303  0.97841834  1
  Os  Os15  1  0.83935697  0.16064303  0.97841834  1
