# generated using pymatgen
data_AlSi3N4
_symmetry_space_group_name_H-M   'P 1'
_cell_length_a   6.02113264
_cell_length_b   6.02113265
_cell_length_c   5.33587229
_cell_angle_alpha   90.00000000
_cell_angle_beta   90.00000000
_cell_angle_gamma   121.79263479
_symmetry_Int_Tables_number   1
_chemical_formula_structural   AlSi3N4
_chemical_formula_sum   'Al2 Si6 N8'
_cell_volume   164.42222488
_cell_formula_units_Z   2
loop_
 _symmetry_equiv_pos_site_id
 _symmetry_equiv_pos_as_xyz
  1  'x, y, z'
loop_
 _atom_site_type_symbol
 _atom_site_label
 _atom_site_symmetry_multiplicity
 _atom_site_fract_x
 _atom_site_fract_y
 _atom_site_fract_z
 _atom_site_occupancy
  Al  Al0  1  0.16778503  0.33221497  0.55526530  1
  Al  Al1  1  0.33221497  0.16778503  0.05526530  1
  N  N2  1  0.15953415  0.34046585  0.92668919  1
  N  N3  1  0.34046585  0.15953415  0.42668919  1
  N  N4  1  0.18126860  0.82813865  0.89732419  1
  N  N5  1  0.31873140  0.67186135  0.39732419  1
  N  N6  1  0.67186135  0.31873140  0.89732419  1
  N  N7  1  0.82813865  0.18126860  0.39732419  1
  N  N8  1  0.70444359  0.79555641  0.74970757  1
  N  N9  1  0.79555641  0.70444359  0.24970757  1
  Si  Si10  1  0.12705423  0.79956967  0.53021073  1
  Si  Si11  1  0.37294577  0.70043033  0.03021073  1
  Si  Si12  1  0.70043033  0.37294577  0.53021073  1
  Si  Si13  1  0.79956967  0.12705423  0.03021073  1
  Si  Si14  1  0.66431483  0.83568517  0.44126811  1
  Si  Si15  1  0.83568517  0.66431483  0.94126811  1
