# generated using pymatgen
data_Ti3AlN4
_symmetry_space_group_name_H-M   'P 1'
_cell_length_a   6.95040435
_cell_length_b   6.95040435
_cell_length_c   4.22865662
_cell_angle_alpha   90.00000000
_cell_angle_beta   90.00000000
_cell_angle_gamma   120.19433199
_symmetry_Int_Tables_number   1
_chemical_formula_structural   Ti3AlN4
_chemical_formula_sum   'Ti6 Al2 N8'
_cell_volume   176.56288491
_cell_formula_units_Z   2
loop_
 _symmetry_equiv_pos_site_id
 _symmetry_equiv_pos_as_xyz
  1  'x, y, z'
loop_
 _atom_site_type_symbol
 _atom_site_label
 _atom_site_symmetry_multiplicity
 _atom_site_fract_x
 _atom_site_fract_y
 _atom_site_fract_z
 _atom_site_occupancy
  Al  Al0  1  0.16957938  0.33042062  0.44156063  1
  Al  Al1  1  0.33042062  0.16957938  0.94156063  1
  N  N2  1  0.17360760  0.32639240  0.94089219  1
  N  N3  1  0.32639240  0.17360760  0.44089219  1
  N  N4  1  0.17924956  0.85466919  0.94094687  1
  N  N5  1  0.32075044  0.64533081  0.44094687  1
  N  N6  1  0.64533081  0.32075044  0.94094687  1
  N  N7  1  0.85466919  0.17924956  0.44094687  1
  N  N8  1  0.66596092  0.83403908  0.94083437  1
  N  N9  1  0.83403908  0.66596092  0.44083437  1
  Ti  Ti10  1  0.17117966  0.83293154  0.44098462  1
  Ti  Ti11  1  0.32882034  0.66706846  0.94098462  1
  Ti  Ti12  1  0.66706846  0.32882034  0.44098462  1
  Ti  Ti13  1  0.83293154  0.17117966  0.94098462  1
  Ti  Ti14  1  0.66418914  0.83581086  0.44084984  1
  Ti  Ti15  1  0.83581086  0.66418914  0.94084984  1
