# generated using pymatgen
data_AlV3N4
_symmetry_space_group_name_H-M   'P 1'
_cell_length_a   6.74385621
_cell_length_b   6.74385622
_cell_length_c   4.04220420
_cell_angle_alpha   90.00000000
_cell_angle_beta   90.00000000
_cell_angle_gamma   118.41167166
_symmetry_Int_Tables_number   1
_chemical_formula_structural   AlV3N4
_chemical_formula_sum   'Al2 V6 N8'
_cell_volume   161.69485776
_cell_formula_units_Z   2
loop_
 _symmetry_equiv_pos_site_id
 _symmetry_equiv_pos_as_xyz
  1  'x, y, z'
loop_
 _atom_site_type_symbol
 _atom_site_label
 _atom_site_symmetry_multiplicity
 _atom_site_fract_x
 _atom_site_fract_y
 _atom_site_fract_z
 _atom_site_occupancy
  Al  Al0  1  0.16991175  0.33008825  0.44112253  1
  Al  Al1  1  0.33008825  0.16991175  0.94112253  1
  N  N2  1  0.16747261  0.33252739  0.94107490  1
  N  N3  1  0.33252739  0.16747261  0.44107490  1
  N  N4  1  0.17258493  0.85309991  0.94102320  1
  N  N5  1  0.32741507  0.64690009  0.44102320  1
  N  N6  1  0.64690009  0.32741507  0.94102320  1
  N  N7  1  0.85309991  0.17258493  0.44102320  1
  N  N8  1  0.66255802  0.83744198  0.94085477  1
  N  N9  1  0.83744198  0.66255802  0.44085477  1
  V  V10  1  0.16738171  0.82526193  0.44105329  1
  V  V11  1  0.33261829  0.67473807  0.94105329  1
  V  V12  1  0.67473807  0.33261829  0.44105329  1
  V  V13  1  0.82526193  0.16738171  0.94105329  1
  V  V14  1  0.66457644  0.83542356  0.44079480  1
  V  V15  1  0.83542356  0.66457644  0.94079480  1
