# generated using pymatgen
data_AlCr3N4
_symmetry_space_group_name_H-M   'P 1'
_cell_length_a   6.31835842
_cell_length_b   6.31835842
_cell_length_c   4.80327307
_cell_angle_alpha   90.00000000
_cell_angle_beta   90.00000000
_cell_angle_gamma   119.23835599
_symmetry_Int_Tables_number   1
_chemical_formula_structural   AlCr3N4
_chemical_formula_sum   'Al2 Cr6 N8'
_cell_volume   167.32416205
_cell_formula_units_Z   2
loop_
 _symmetry_equiv_pos_site_id
 _symmetry_equiv_pos_as_xyz
  1  'x, y, z'
loop_
 _atom_site_type_symbol
 _atom_site_label
 _atom_site_symmetry_multiplicity
 _atom_site_fract_x
 _atom_site_fract_y
 _atom_site_fract_z
 _atom_site_occupancy
  Al  Al0  1  0.16960184  0.33039816  0.53578318  1
  Al  Al1  1  0.33039816  0.16960184  0.03578318  1
  N  N2  1  0.16627860  0.33372140  0.92764114  1
  N  N3  1  0.33372140  0.16627860  0.42764114  1
  N  N4  1  0.17042100  0.85345595  0.89887799  1
  N  N5  1  0.32957900  0.64654405  0.39887799  1
  N  N6  1  0.64654405  0.32957900  0.89887799  1
  N  N7  1  0.85345595  0.17042100  0.39887799  1
  N  N8  1  0.65905130  0.84094870  0.92549097  1
  N  N9  1  0.84094870  0.65905130  0.42549097  1
  Cr  Cr10  1  0.17418087  0.82351614  0.50326296  1
  Cr  Cr11  1  0.32581913  0.67648386  0.00326296  1
  Cr  Cr12  1  0.67648386  0.32581913  0.50326296  1
  Cr  Cr13  1  0.82351614  0.17418087  0.00326296  1
  Cr  Cr14  1  0.67305937  0.82694063  0.33480279  1
  Cr  Cr15  1  0.82694063  0.67305937  0.83480279  1
