# generated using pymatgen
data_Mn3AlN4
_symmetry_space_group_name_H-M   'P 1'
_cell_length_a   6.12412663
_cell_length_b   6.12412664
_cell_length_c   4.96852902
_cell_angle_alpha   90.00000000
_cell_angle_beta   90.00000000
_cell_angle_gamma   121.98791369
_symmetry_Int_Tables_number   1
_chemical_formula_structural   Mn3AlN4
_chemical_formula_sum   'Mn6 Al2 N8'
_cell_volume   158.04977120
_cell_formula_units_Z   2
loop_
 _symmetry_equiv_pos_site_id
 _symmetry_equiv_pos_as_xyz
  1  'x, y, z'
loop_
 _atom_site_type_symbol
 _atom_site_label
 _atom_site_symmetry_multiplicity
 _atom_site_fract_x
 _atom_site_fract_y
 _atom_site_fract_z
 _atom_site_occupancy
  Al  Al0  1  0.17079556  0.32920444  0.48433407  1
  Al  Al1  1  0.32920444  0.17079556  0.98433407  1
  N  N2  1  0.16359830  0.33640170  0.86159967  1
  N  N3  1  0.33640170  0.16359830  0.36159967  1
  N  N4  1  0.14864557  0.82760147  0.85926704  1
  N  N5  1  0.35135443  0.67239853  0.35926704  1
  N  N6  1  0.67239853  0.35135443  0.85926704  1
  N  N7  1  0.82760147  0.14864557  0.35926704  1
  N  N8  1  0.68204011  0.81795989  0.92966718  1
  N  N9  1  0.81795989  0.68204011  0.42966718  1
  Mn  Mn10  1  0.17146841  0.81773503  0.48607460  1
  Mn  Mn11  1  0.32853159  0.68226497  0.98607460  1
  Mn  Mn12  1  0.68226497  0.32853159  0.48607460  1
  Mn  Mn13  1  0.81773503  0.17146841  0.98607460  1
  Mn  Mn14  1  0.65322547  0.84677453  0.56171582  1
  Mn  Mn15  1  0.84677453  0.65322547  0.06171582  1
