# generated using pymatgen
data_AlFe3N4
_symmetry_space_group_name_H-M   'P 1'
_cell_length_a   6.02345269
_cell_length_b   6.02345269
_cell_length_c   4.98811839
_cell_angle_alpha   90.00000000
_cell_angle_beta   90.00000000
_cell_angle_gamma   118.87522447
_symmetry_Int_Tables_number   1
_chemical_formula_structural   AlFe3N4
_chemical_formula_sum   'Al2 Fe6 N8'
_cell_volume   158.47834572
_cell_formula_units_Z   2
loop_
 _symmetry_equiv_pos_site_id
 _symmetry_equiv_pos_as_xyz
  1  'x, y, z'
loop_
 _atom_site_type_symbol
 _atom_site_label
 _atom_site_symmetry_multiplicity
 _atom_site_fract_x
 _atom_site_fract_y
 _atom_site_fract_z
 _atom_site_occupancy
  Al  Al0  1  0.16416008  0.33583992  0.51619183  1
  Al  Al1  1  0.33583992  0.16416008  0.01619183  1
  N  N2  1  0.16435397  0.33564603  0.89254253  1
  N  N3  1  0.33564603  0.16435397  0.39254253  1
  N  N4  1  0.17716748  0.83061465  0.87382122  1
  N  N5  1  0.32283252  0.66938535  0.37382122  1
  N  N6  1  0.66938535  0.32283252  0.87382122  1
  N  N7  1  0.83061465  0.17716748  0.37382122  1
  N  N8  1  0.67762935  0.82237065  0.86183938  1
  N  N9  1  0.82237065  0.67762935  0.36183938  1
  Fe  Fe10  1  0.14255327  0.82023461  0.50839316  1
  Fe  Fe11  1  0.35744673  0.67976539  0.00839316  1
  Fe  Fe12  1  0.67976539  0.35744673  0.50839316  1
  Fe  Fe13  1  0.82023461  0.14255327  0.00839316  1
  Fe  Fe14  1  0.65549508  0.84450492  0.49299749  1
  Fe  Fe15  1  0.84450492  0.65549508  0.99299749  1
