# generated using pymatgen
data_AlCo3N4
_symmetry_space_group_name_H-M   'P 1'
_cell_length_a   6.12667087
_cell_length_b   6.12667088
_cell_length_c   4.91680738
_cell_angle_alpha   90.00000000
_cell_angle_beta   90.00000000
_cell_angle_gamma   120.11242601
_symmetry_Int_Tables_number   1
_chemical_formula_structural   AlCo3N4
_chemical_formula_sum   'Al2 Co6 N8'
_cell_volume   159.65032567
_cell_formula_units_Z   2
loop_
 _symmetry_equiv_pos_site_id
 _symmetry_equiv_pos_as_xyz
  1  'x, y, z'
loop_
 _atom_site_type_symbol
 _atom_site_label
 _atom_site_symmetry_multiplicity
 _atom_site_fract_x
 _atom_site_fract_y
 _atom_site_fract_z
 _atom_site_occupancy
  Al  Al0  1  0.16737660  0.33262340  0.51468584  1
  Al  Al1  1  0.33262340  0.16737660  0.01468584  1
  N  N2  1  0.16423276  0.33576724  0.89841953  1
  N  N3  1  0.33576724  0.16423276  0.39841953  1
  N  N4  1  0.16655709  0.83327544  0.87547928  1
  N  N5  1  0.33344291  0.66672456  0.37547928  1
  N  N6  1  0.66672456  0.33344291  0.87547928  1
  N  N7  1  0.83327544  0.16655709  0.37547928  1
  N  N8  1  0.67026902  0.82973098  0.87001461  1
  N  N9  1  0.82973098  0.67026902  0.37001461  1
  Co  Co10  1  0.15173676  0.81579368  0.50026902  1
  Co  Co11  1  0.34826324  0.68420632  0.00026902  1
  Co  Co12  1  0.68420632  0.34826324  0.50026902  1
  Co  Co13  1  0.81579368  0.15173676  0.00026902  1
  Co  Co14  1  0.66643812  0.83356188  0.49338343  1
  Co  Co15  1  0.83356188  0.66643812  0.99338343  1
