# generated using pymatgen
data_AlNi3N4
_symmetry_space_group_name_H-M   'P 1'
_cell_length_a   6.20485080
_cell_length_b   6.20485080
_cell_length_c   4.97021178
_cell_angle_alpha   90.00000000
_cell_angle_beta   90.00000000
_cell_angle_gamma   120.00218509
_symmetry_Int_Tables_number   1
_chemical_formula_structural   AlNi3N4
_chemical_formula_sum   'Al2 Ni6 N8'
_cell_volume   165.71378973
_cell_formula_units_Z   2
loop_
 _symmetry_equiv_pos_site_id
 _symmetry_equiv_pos_as_xyz
  1  'x, y, z'
loop_
 _atom_site_type_symbol
 _atom_site_label
 _atom_site_symmetry_multiplicity
 _atom_site_fract_x
 _atom_site_fract_y
 _atom_site_fract_z
 _atom_site_occupancy
  Al  Al0  1  0.16680035  0.33319965  0.50557923  1
  Al  Al1  1  0.33319965  0.16680035  0.00557923  1
  N  N2  1  0.16836882  0.33163118  0.88504083  1
  N  N3  1  0.33163118  0.16836882  0.38504083  1
  N  N4  1  0.16462570  0.83400304  0.87426944  1
  N  N5  1  0.33537430  0.66599696  0.37426944  1
  N  N6  1  0.66599696  0.33537430  0.87426944  1
  N  N7  1  0.83400304  0.16462570  0.37426944  1
  N  N8  1  0.66966697  0.83033303  0.88688227  1
  N  N9  1  0.83033303  0.66966697  0.38688227  1
  Ni  Ni10  1  0.16027023  0.82498071  0.49692414  1
  Ni  Ni11  1  0.33972977  0.67501929  0.99692414  1
  Ni  Ni12  1  0.67501929  0.33972977  0.49692414  1
  Ni  Ni13  1  0.82498071  0.16027023  0.99692414  1
  Ni  Ni14  1  0.66444098  0.83555902  0.50811051  1
  Ni  Ni15  1  0.83555902  0.66444098  0.00811051  1
