# generated using pymatgen
data_Zr3AlN4
_symmetry_space_group_name_H-M   'P 1'
_cell_length_a   7.30152890
_cell_length_b   7.30152891
_cell_length_c   4.61362592
_cell_angle_alpha   90.00000000
_cell_angle_beta   90.00000000
_cell_angle_gamma   120.56299886
_symmetry_Int_Tables_number   1
_chemical_formula_structural   Zr3AlN4
_chemical_formula_sum   'Zr6 Al2 N8'
_cell_volume   211.79160823
_cell_formula_units_Z   2
loop_
 _symmetry_equiv_pos_site_id
 _symmetry_equiv_pos_as_xyz
  1  'x, y, z'
loop_
 _atom_site_type_symbol
 _atom_site_label
 _atom_site_symmetry_multiplicity
 _atom_site_fract_x
 _atom_site_fract_y
 _atom_site_fract_z
 _atom_site_occupancy
  Al  Al0  1  0.17235604  0.32764396  0.48098890  1
  Al  Al1  1  0.32764396  0.17235604  0.98098890  1
  N  N2  1  0.18132840  0.31867160  0.91011389  1
  N  N3  1  0.31867160  0.18132840  0.41011389  1
  N  N4  1  0.18687963  0.87107439  0.93737235  1
  N  N5  1  0.31312037  0.62892561  0.43737235  1
  N  N6  1  0.62892561  0.31312037  0.93737235  1
  N  N7  1  0.87107439  0.18687963  0.43737235  1
  N  N8  1  0.66703504  0.83296496  0.94049245  1
  N  N9  1  0.83296496  0.66703504  0.44049245  1
  Zr  Zr10  1  0.17729290  0.83883174  0.44127576  1
  Zr  Zr11  1  0.32270710  0.66116826  0.94127576  1
  Zr  Zr12  1  0.66116826  0.32270710  0.44127576  1
  Zr  Zr13  1  0.83883174  0.17729290  0.94127576  1
  Zr  Zr14  1  0.66251938  0.83748062  0.43910853  1
  Zr  Zr15  1  0.83748062  0.66251938  0.93910853  1
