# generated using pymatgen
data_Nb3AlN4
_symmetry_space_group_name_H-M   'P 1'
_cell_length_a   7.35014251
_cell_length_b   7.35014251
_cell_length_c   4.32354575
_cell_angle_alpha   90.00000000
_cell_angle_beta   90.00000000
_cell_angle_gamma   124.15981224
_symmetry_Int_Tables_number   1
_chemical_formula_structural   Nb3AlN4
_chemical_formula_sum   'Nb6 Al2 N8'
_cell_volume   193.27970801
_cell_formula_units_Z   2
loop_
 _symmetry_equiv_pos_site_id
 _symmetry_equiv_pos_as_xyz
  1  'x, y, z'
loop_
 _atom_site_type_symbol
 _atom_site_label
 _atom_site_symmetry_multiplicity
 _atom_site_fract_x
 _atom_site_fract_y
 _atom_site_fract_z
 _atom_site_occupancy
  Al  Al0  1  0.17584971  0.32415029  0.43967339  1
  Al  Al1  1  0.32415029  0.17584971  0.93967339  1
  N  N2  1  0.17758279  0.32241721  0.94187524  1
  N  N3  1  0.32241721  0.17758279  0.44187524  1
  N  N4  1  0.18406929  0.86501864  0.94118034  1
  N  N5  1  0.31593071  0.63498136  0.44118034  1
  N  N6  1  0.63498136  0.31593071  0.94118034  1
  N  N7  1  0.86501864  0.18406929  0.44118034  1
  N  N8  1  0.68056568  0.81943432  0.94094667  1
  N  N9  1  0.81943432  0.68056568  0.44094667  1
  Nb  Nb10  1  0.17346274  0.82091492  0.44106789  1
  Nb  Nb11  1  0.32653726  0.67908508  0.94106789  1
  Nb  Nb12  1  0.67908508  0.32653726  0.44106789  1
  Nb  Nb13  1  0.82091492  0.17346274  0.94106789  1
  Nb  Nb14  1  0.65596469  0.84403531  0.44100823  1
  Nb  Nb15  1  0.84403531  0.65596469  0.94100823  1
