# generated using pymatgen
data_Hf3AlN4
_symmetry_space_group_name_H-M   'P 1'
_cell_length_a   7.25780952
_cell_length_b   7.25780952
_cell_length_c   4.53078855
_cell_angle_alpha   90.00000000
_cell_angle_beta   90.00000000
_cell_angle_gamma   120.73062683
_symmetry_Int_Tables_number   1
_chemical_formula_structural   Hf3AlN4
_chemical_formula_sum   'Hf6 Al2 N8'
_cell_volume   205.14968125
_cell_formula_units_Z   2
loop_
 _symmetry_equiv_pos_site_id
 _symmetry_equiv_pos_as_xyz
  1  'x, y, z'
loop_
 _atom_site_type_symbol
 _atom_site_label
 _atom_site_symmetry_multiplicity
 _atom_site_fract_x
 _atom_site_fract_y
 _atom_site_fract_z
 _atom_site_occupancy
  Al  Al0  1  0.17244492  0.32755508  0.47508021  1
  Al  Al1  1  0.32755508  0.17244492  0.97508021  1
  N  N2  1  0.18046020  0.31953980  0.91594744  1
  N  N3  1  0.31953980  0.18046020  0.41594744  1
  N  N4  1  0.18585166  0.87018472  0.93751860  1
  N  N5  1  0.31414834  0.62981528  0.43751860  1
  N  N6  1  0.62981528  0.31414834  0.93751860  1
  N  N7  1  0.87018472  0.18585166  0.43751860  1
  N  N8  1  0.66754868  0.83245132  0.94040727  1
  N  N9  1  0.83245132  0.66754868  0.44040727  1
  Hf  Hf10  1  0.17944297  0.83923855  0.44110946  1
  Hf  Hf11  1  0.32055703  0.66076145  0.94110946  1
  Hf  Hf12  1  0.66076145  0.32055703  0.44110946  1
  Hf  Hf13  1  0.83923855  0.17944297  0.94110946  1
  Hf  Hf14  1  0.66128632  0.83871368  0.43930897  1
  Hf  Hf15  1  0.83871368  0.66128632  0.93930897  1
