# generated using pymatgen
data_AlW3N4
_symmetry_space_group_name_H-M   'P 1'
_cell_length_a   6.63973990
_cell_length_b   6.63973990
_cell_length_c   5.24728724
_cell_angle_alpha   90.00000000
_cell_angle_beta   90.00000000
_cell_angle_gamma   125.69019806
_symmetry_Int_Tables_number   1
_chemical_formula_structural   AlW3N4
_chemical_formula_sum   'Al2 W6 N8'
_cell_volume   187.88454251
_cell_formula_units_Z   2
loop_
 _symmetry_equiv_pos_site_id
 _symmetry_equiv_pos_as_xyz
  1  'x, y, z'
loop_
 _atom_site_type_symbol
 _atom_site_label
 _atom_site_symmetry_multiplicity
 _atom_site_fract_x
 _atom_site_fract_y
 _atom_site_fract_z
 _atom_site_occupancy
  Al  Al0  1  0.18211840  0.31788160  0.51927321  1
  Al  Al1  1  0.31788160  0.18211840  0.01927321  1
  N  N2  1  0.17344859  0.32655141  0.87733402  1
  N  N3  1  0.32655141  0.17344859  0.37733402  1
  N  N4  1  0.15420459  0.87589011  0.85367283  1
  N  N5  1  0.34579541  0.62410989  0.35367283  1
  N  N6  1  0.62410989  0.34579541  0.85367283  1
  N  N7  1  0.87589011  0.15420459  0.35367283  1
  N  N8  1  0.68704543  0.81295457  0.91952365  1
  N  N9  1  0.81295457  0.68704543  0.41952365  1
  W  W10  1  0.19963198  0.80667288  0.47466625  1
  W  W11  1  0.30036802  0.69332712  0.97466625  1
  W  W12  1  0.69332712  0.30036802  0.47466625  1
  W  W13  1  0.80667288  0.19963198  0.97466625  1
  W  W14  1  0.64538684  0.85461316  0.55519096  1
  W  W15  1  0.85461316  0.64538684  0.05519096  1
