# generated using pymatgen
data_AlRe3N4
_symmetry_space_group_name_H-M   'P 1'
_cell_length_a   6.38792730
_cell_length_b   6.38792730
_cell_length_c   5.18376238
_cell_angle_alpha   90.00000000
_cell_angle_beta   90.00000000
_cell_angle_gamma   120.75685743
_symmetry_Int_Tables_number   1
_chemical_formula_structural   AlRe3N4
_chemical_formula_sum   'Al2 Re6 N8'
_cell_volume   181.77438202
_cell_formula_units_Z   2
loop_
 _symmetry_equiv_pos_site_id
 _symmetry_equiv_pos_as_xyz
  1  'x, y, z'
loop_
 _atom_site_type_symbol
 _atom_site_label
 _atom_site_symmetry_multiplicity
 _atom_site_fract_x
 _atom_site_fract_y
 _atom_site_fract_z
 _atom_site_occupancy
  Al  Al0  1  0.17981774  0.32018226  0.58164518  1
  Al  Al1  1  0.32018226  0.17981774  0.08164518  1
  N  N2  1  0.16736440  0.33263560  0.93771248  1
  N  N3  1  0.33263560  0.16736440  0.43771248  1
  N  N4  1  0.17660862  0.89171653  0.89597529  1
  N  N5  1  0.32339138  0.60828347  0.39597529  1
  N  N6  1  0.60828347  0.32339138  0.89597529  1
  N  N7  1  0.89171653  0.17660862  0.39597529  1
  N  N8  1  0.64281912  0.85718088  0.78769399  1
  N  N9  1  0.85718088  0.64281912  0.28769399  1
  Re  Re10  1  0.17012198  0.79605521  0.51983545  1
  Re  Re11  1  0.32987802  0.70394479  0.01983545  1
  Re  Re12  1  0.70394479  0.32987802  0.51983545  1
  Re  Re13  1  0.79605521  0.17012198  0.01983545  1
  Re  Re14  1  0.68522712  0.81477288  0.38932689  1
  Re  Re15  1  0.81477288  0.68522712  0.88932689  1
