# generated using pymatgen
data_AlOs3N4
_symmetry_space_group_name_H-M   'P 1'
_cell_length_a   6.49557820
_cell_length_b   6.49557820
_cell_length_c   5.04190040
_cell_angle_alpha   90.00000000
_cell_angle_beta   90.00000000
_cell_angle_gamma   122.28562037
_symmetry_Int_Tables_number   1
_chemical_formula_structural   AlOs3N4
_chemical_formula_sum   'Al2 Os6 N8'
_cell_volume   179.84155037
_cell_formula_units_Z   2
loop_
 _symmetry_equiv_pos_site_id
 _symmetry_equiv_pos_as_xyz
  1  'x, y, z'
loop_
 _atom_site_type_symbol
 _atom_site_label
 _atom_site_symmetry_multiplicity
 _atom_site_fract_x
 _atom_site_fract_y
 _atom_site_fract_z
 _atom_site_occupancy
  Al  Al0  1  0.18961255  0.31038745  0.52801471  1
  Al  Al1  1  0.31038745  0.18961255  0.02801471  1
  N  N2  1  0.16112260  0.33887740  0.88810757  1
  N  N3  1  0.33887740  0.16112260  0.38810757  1
  N  N4  1  0.16361684  0.89270906  0.85310172  1
  N  N5  1  0.33638316  0.60729094  0.35310172  1
  N  N6  1  0.60729094  0.33638316  0.85310172  1
  N  N7  1  0.89270906  0.16361684  0.35310172  1
  N  N8  1  0.68892842  0.81107158  0.90462509  1
  N  N9  1  0.81107158  0.68892842  0.40462509  1
  Os  Os10  1  0.16953030  0.77785606  0.48275454  1
  Os  Os11  1  0.33046970  0.72214394  0.98275454  1
  Os  Os12  1  0.72214394  0.33046970  0.48275454  1
  Os  Os13  1  0.77785606  0.16953030  0.98275454  1
  Os  Os14  1  0.63060277  0.86939723  0.53554012  1
  Os  Os15  1  0.86939723  0.63060277  0.03554012  1
