# generated using pymatgen
data_BN
_symmetry_space_group_name_H-M   'P 1'
_cell_length_a   5.11077438
_cell_length_b   5.11077438
_cell_length_c   4.22438229
_cell_angle_alpha   90.00000000
_cell_angle_beta   90.00000000
_cell_angle_gamma   119.99999998
_symmetry_Int_Tables_number   1
_chemical_formula_structural   BN
_chemical_formula_sum   'B8 N8'
_cell_volume   95.55804662
_cell_formula_units_Z   8
loop_
 _symmetry_equiv_pos_site_id
 _symmetry_equiv_pos_as_xyz
  1  'x, y, z'
loop_
 _atom_site_type_symbol
 _atom_site_label
 _atom_site_symmetry_multiplicity
 _atom_site_fract_x
 _atom_site_fract_y
 _atom_site_fract_z
 _atom_site_occupancy
  B  B0  1  0.16666667  0.33333333  0.50372647  1
  B  B1  1  0.33333333  0.16666667  0.00372647  1
  B  B2  1  0.16666667  0.83333333  0.50372647  1
  B  B3  1  0.33333333  0.66666667  0.00372647  1
  B  B4  1  0.66666667  0.33333333  0.50372647  1
  B  B5  1  0.83333333  0.16666667  0.00372647  1
  B  B6  1  0.66666667  0.83333333  0.50372647  1
  B  B7  1  0.83333333  0.66666667  0.00372647  1
  N  N8  1  0.16666667  0.33333333  0.87827353  1
  N  N9  1  0.33333333  0.16666667  0.37827353  1
  N  N10  1  0.16666667  0.83333333  0.87827353  1
  N  N11  1  0.33333333  0.66666667  0.37827353  1
  N  N12  1  0.66666667  0.33333333  0.87827353  1
  N  N13  1  0.83333333  0.16666667  0.37827353  1
  N  N14  1  0.66666667  0.83333333  0.87827353  1
  N  N15  1  0.83333333  0.66666667  0.37827353  1
