# generated using pymatgen
data_SiN
_symmetry_space_group_name_H-M   'P 1'
_cell_length_a   5.66749462
_cell_length_b   5.66749462
_cell_length_c   5.69332557
_cell_angle_alpha   90.00000000
_cell_angle_beta   90.00000000
_cell_angle_gamma   119.99999998
_symmetry_Int_Tables_number   1
_chemical_formula_structural   SiN
_chemical_formula_sum   'Si8 N8'
_cell_volume   158.37217622
_cell_formula_units_Z   8
loop_
 _symmetry_equiv_pos_site_id
 _symmetry_equiv_pos_as_xyz
  1  'x, y, z'
loop_
 _atom_site_type_symbol
 _atom_site_label
 _atom_site_symmetry_multiplicity
 _atom_site_fract_x
 _atom_site_fract_y
 _atom_site_fract_z
 _atom_site_occupancy
  Si  Si0  1  0.16666667  0.33333333  0.51906196  1
  Si  Si1  1  0.33333333  0.16666667  0.01906196  1
  Si  Si2  1  0.16666667  0.83333333  0.51906196  1
  Si  Si3  1  0.33333333  0.66666667  0.01906196  1
  Si  Si4  1  0.66666667  0.33333333  0.51906196  1
  Si  Si5  1  0.83333333  0.16666667  0.01906196  1
  Si  Si6  1  0.66666667  0.83333333  0.51906196  1
  Si  Si7  1  0.83333333  0.66666667  0.01906196  1
  N  N8  1  0.16666667  0.33333333  0.86293804  1
  N  N9  1  0.33333333  0.16666667  0.36293804  1
  N  N10  1  0.16666667  0.83333333  0.86293804  1
  N  N11  1  0.33333333  0.66666667  0.36293804  1
  N  N12  1  0.66666667  0.33333333  0.86293804  1
  N  N13  1  0.83333333  0.16666667  0.36293804  1
  N  N14  1  0.66666667  0.83333333  0.86293804  1
  N  N15  1  0.83333333  0.66666667  0.36293804  1
