# generated using pymatgen
data_MnN
_symmetry_space_group_name_H-M   'P 1'
_cell_length_a   6.06603431
_cell_length_b   6.06603432
_cell_length_c   4.92387124
_cell_angle_alpha   90.00000000
_cell_angle_beta   90.00000000
_cell_angle_gamma   120.00000001
_symmetry_Int_Tables_number   1
_chemical_formula_structural   MnN
_chemical_formula_sum   'Mn8 N8'
_cell_volume   156.90870736
_cell_formula_units_Z   8
loop_
 _symmetry_equiv_pos_site_id
 _symmetry_equiv_pos_as_xyz
  1  'x, y, z'
loop_
 _atom_site_type_symbol
 _atom_site_label
 _atom_site_symmetry_multiplicity
 _atom_site_fract_x
 _atom_site_fract_y
 _atom_site_fract_z
 _atom_site_occupancy
  Mn  Mn0  1  0.16666667  0.33333333  0.50374233  1
  Mn  Mn1  1  0.33333333  0.16666667  0.00374233  1
  Mn  Mn2  1  0.16666667  0.83333333  0.50374233  1
  Mn  Mn3  1  0.33333333  0.66666667  0.00374233  1
  Mn  Mn4  1  0.66666667  0.33333333  0.50374233  1
  Mn  Mn5  1  0.83333333  0.16666667  0.00374233  1
  Mn  Mn6  1  0.66666667  0.83333333  0.50374233  1
  Mn  Mn7  1  0.83333333  0.66666667  0.00374233  1
  N  N8  1  0.16666667  0.33333333  0.87825767  1
  N  N9  1  0.33333333  0.16666667  0.37825767  1
  N  N10  1  0.16666667  0.83333333  0.87825767  1
  N  N11  1  0.33333333  0.66666667  0.37825767  1
  N  N12  1  0.66666667  0.33333333  0.87825767  1
  N  N13  1  0.83333333  0.16666667  0.37825767  1
  N  N14  1  0.66666667  0.83333333  0.87825767  1
  N  N15  1  0.83333333  0.66666667  0.37825767  1
