# generated using pymatgen
data_FeN
_symmetry_space_group_name_H-M   'P 1'
_cell_length_a   5.92370762
_cell_length_b   5.92370763
_cell_length_c   5.03172701
_cell_angle_alpha   90.00000000
_cell_angle_beta   90.00000000
_cell_angle_gamma   119.99999997
_symmetry_Int_Tables_number   1
_chemical_formula_structural   FeN
_chemical_formula_sum   'Fe8 N8'
_cell_volume   152.90966348
_cell_formula_units_Z   8
loop_
 _symmetry_equiv_pos_site_id
 _symmetry_equiv_pos_as_xyz
  1  'x, y, z'
loop_
 _atom_site_type_symbol
 _atom_site_label
 _atom_site_symmetry_multiplicity
 _atom_site_fract_x
 _atom_site_fract_y
 _atom_site_fract_z
 _atom_site_occupancy
  Fe  Fe0  1  0.16666667  0.33333333  0.50670774  1
  Fe  Fe1  1  0.33333333  0.16666667  0.00670774  1
  Fe  Fe2  1  0.16666667  0.83333333  0.50670774  1
  Fe  Fe3  1  0.33333333  0.66666667  0.00670774  1
  Fe  Fe4  1  0.66666667  0.33333333  0.50670774  1
  Fe  Fe5  1  0.83333333  0.16666667  0.00670774  1
  Fe  Fe6  1  0.66666667  0.83333333  0.50670774  1
  Fe  Fe7  1  0.83333333  0.66666667  0.00670774  1
  N  N8  1  0.16666667  0.33333333  0.87529226  1
  N  N9  1  0.33333333  0.16666667  0.37529226  1
  N  N10  1  0.16666667  0.83333333  0.87529226  1
  N  N11  1  0.33333333  0.66666667  0.37529226  1
  N  N12  1  0.66666667  0.33333333  0.87529226  1
  N  N13  1  0.83333333  0.16666667  0.37529226  1
  N  N14  1  0.66666667  0.83333333  0.87529226  1
  N  N15  1  0.83333333  0.66666667  0.37529226  1
