# generated using pymatgen
data_YN
_symmetry_space_group_name_H-M   'P 1'
_cell_length_a   8.02773292
_cell_length_b   8.02773293
_cell_length_c   4.91939924
_cell_angle_alpha   90.00000000
_cell_angle_beta   90.00000000
_cell_angle_gamma   119.99999998
_symmetry_Int_Tables_number   1
_chemical_formula_structural   YN
_chemical_formula_sum   'Y8 N8'
_cell_volume   274.55447849
_cell_formula_units_Z   8
loop_
 _symmetry_equiv_pos_site_id
 _symmetry_equiv_pos_as_xyz
  1  'x, y, z'
loop_
 _atom_site_type_symbol
 _atom_site_label
 _atom_site_symmetry_multiplicity
 _atom_site_fract_x
 _atom_site_fract_y
 _atom_site_fract_z
 _atom_site_occupancy
  Y  Y0  1  0.16666667  0.33333333  0.44417142  1
  Y  Y1  1  0.33333333  0.16666667  0.94417142  1
  Y  Y2  1  0.16666667  0.83333333  0.44417142  1
  Y  Y3  1  0.33333333  0.66666667  0.94417142  1
  Y  Y4  1  0.66666667  0.33333333  0.44417142  1
  Y  Y5  1  0.83333333  0.16666667  0.94417142  1
  Y  Y6  1  0.66666667  0.83333333  0.44417142  1
  Y  Y7  1  0.83333333  0.66666667  0.94417142  1
  N  N8  1  0.16666667  0.33333333  0.93782858  1
  N  N9  1  0.33333333  0.16666667  0.43782858  1
  N  N10  1  0.16666667  0.83333333  0.93782858  1
  N  N11  1  0.33333333  0.66666667  0.43782858  1
  N  N12  1  0.66666667  0.33333333  0.93782858  1
  N  N13  1  0.83333333  0.16666667  0.43782858  1
  N  N14  1  0.66666667  0.83333333  0.93782858  1
  N  N15  1  0.83333333  0.66666667  0.43782858  1
