# generated using pymatgen
data_NbN
_symmetry_space_group_name_H-M   'P 1'
_cell_length_a   6.40901177
_cell_length_b   6.40901177
_cell_length_c   6.05422476
_cell_angle_alpha   90.00000000
_cell_angle_beta   90.00000000
_cell_angle_gamma   119.99999994
_symmetry_Int_Tables_number   1
_chemical_formula_structural   NbN
_chemical_formula_sum   'Nb8 N8'
_cell_volume   215.36310806
_cell_formula_units_Z   8
loop_
 _symmetry_equiv_pos_site_id
 _symmetry_equiv_pos_as_xyz
  1  'x, y, z'
loop_
 _atom_site_type_symbol
 _atom_site_label
 _atom_site_symmetry_multiplicity
 _atom_site_fract_x
 _atom_site_fract_y
 _atom_site_fract_z
 _atom_site_occupancy
  Nb  Nb0  1  0.16666667  0.33333333  0.52624195  1
  Nb  Nb1  1  0.33333333  0.16666667  0.02624195  1
  Nb  Nb2  1  0.16666667  0.83333333  0.52624195  1
  Nb  Nb3  1  0.33333333  0.66666667  0.02624195  1
  Nb  Nb4  1  0.66666667  0.33333333  0.52624195  1
  Nb  Nb5  1  0.83333333  0.16666667  0.02624195  1
  Nb  Nb6  1  0.66666667  0.83333333  0.52624195  1
  Nb  Nb7  1  0.83333333  0.66666667  0.02624195  1
  N  N8  1  0.16666667  0.33333333  0.85575805  1
  N  N9  1  0.33333333  0.16666667  0.35575805  1
  N  N10  1  0.16666667  0.83333333  0.85575805  1
  N  N11  1  0.33333333  0.66666667  0.35575805  1
  N  N12  1  0.66666667  0.33333333  0.85575805  1
  N  N13  1  0.83333333  0.16666667  0.35575805  1
  N  N14  1  0.66666667  0.83333333  0.85575805  1
  N  N15  1  0.83333333  0.66666667  0.35575805  1
