# generated using pymatgen
data_WN
_symmetry_space_group_name_H-M   'P 1'
_cell_length_a   5.81600430
_cell_length_b   5.81600430
_cell_length_c   6.46738249
_cell_angle_alpha   90.00000000
_cell_angle_beta   90.00000000
_cell_angle_gamma   120.00000001
_symmetry_Int_Tables_number   1
_chemical_formula_structural   WN
_chemical_formula_sum   'W8 N8'
_cell_volume   189.45610997
_cell_formula_units_Z   8
loop_
 _symmetry_equiv_pos_site_id
 _symmetry_equiv_pos_as_xyz
  1  'x, y, z'
loop_
 _atom_site_type_symbol
 _atom_site_label
 _atom_site_symmetry_multiplicity
 _atom_site_fract_x
 _atom_site_fract_y
 _atom_site_fract_z
 _atom_site_occupancy
  W  W0  1  0.16666667  0.33333333  0.53603788  1
  W  W1  1  0.33333333  0.16666667  0.03603788  1
  W  W2  1  0.16666667  0.83333333  0.53603788  1
  W  W3  1  0.33333333  0.66666667  0.03603788  1
  W  W4  1  0.66666667  0.33333333  0.53603788  1
  W  W5  1  0.83333333  0.16666667  0.03603788  1
  W  W6  1  0.66666667  0.83333333  0.53603788  1
  W  W7  1  0.83333333  0.66666667  0.03603788  1
  N  N8  1  0.16666667  0.33333333  0.84596212  1
  N  N9  1  0.33333333  0.16666667  0.34596212  1
  N  N10  1  0.16666667  0.83333333  0.84596212  1
  N  N11  1  0.33333333  0.66666667  0.34596212  1
  N  N12  1  0.66666667  0.33333333  0.84596212  1
  N  N13  1  0.83333333  0.16666667  0.34596212  1
  N  N14  1  0.66666667  0.83333333  0.84596212  1
  N  N15  1  0.83333333  0.66666667  0.34596212  1
