# generated using pymatgen
data_ReN
_symmetry_space_group_name_H-M   'P 1'
_cell_length_a   5.56871435
_cell_length_b   5.56871436
_cell_length_c   6.64337120
_cell_angle_alpha   90.00000000
_cell_angle_beta   90.00000000
_cell_angle_gamma   120.00000001
_symmetry_Int_Tables_number   1
_chemical_formula_structural   ReN
_chemical_formula_sum   'Re8 N8'
_cell_volume   178.41404265
_cell_formula_units_Z   8
loop_
 _symmetry_equiv_pos_site_id
 _symmetry_equiv_pos_as_xyz
  1  'x, y, z'
loop_
 _atom_site_type_symbol
 _atom_site_label
 _atom_site_symmetry_multiplicity
 _atom_site_fract_x
 _atom_site_fract_y
 _atom_site_fract_z
 _atom_site_occupancy
  Re  Re0  1  0.16666667  0.33333333  0.53674695  1
  Re  Re1  1  0.33333333  0.16666667  0.03674695  1
  Re  Re2  1  0.16666667  0.83333333  0.53674695  1
  Re  Re3  1  0.33333333  0.66666667  0.03674695  1
  Re  Re4  1  0.66666667  0.33333333  0.53674695  1
  Re  Re5  1  0.83333333  0.16666667  0.03674695  1
  Re  Re6  1  0.66666667  0.83333333  0.53674695  1
  Re  Re7  1  0.83333333  0.66666667  0.03674695  1
  N  N8  1  0.16666667  0.33333333  0.84525305  1
  N  N9  1  0.33333333  0.16666667  0.34525305  1
  N  N10  1  0.16666667  0.83333333  0.84525305  1
  N  N11  1  0.33333333  0.66666667  0.34525305  1
  N  N12  1  0.66666667  0.33333333  0.84525305  1
  N  N13  1  0.83333333  0.16666667  0.34525305  1
  N  N14  1  0.66666667  0.83333333  0.84525305  1
  N  N15  1  0.83333333  0.66666667  0.34525305  1
