# generated using pymatgen
data_TiAlN2
_symmetry_space_group_name_H-M   'P 1'
_cell_length_a   6.86980314
_cell_length_b   6.86980313
_cell_length_c   4.20235855
_cell_angle_alpha   90.00000000
_cell_angle_beta   90.00000000
_cell_angle_gamma   120.00000003
_symmetry_Int_Tables_number   1
_chemical_formula_structural   TiAlN2
_chemical_formula_sum   'Ti4 Al4 N8'
_cell_volume   171.75615908
_cell_formula_units_Z   4
loop_
 _symmetry_equiv_pos_site_id
 _symmetry_equiv_pos_as_xyz
  1  'x, y, z'
loop_
 _atom_site_type_symbol
 _atom_site_label
 _atom_site_symmetry_multiplicity
 _atom_site_fract_x
 _atom_site_fract_y
 _atom_site_fract_z
 _atom_site_occupancy
  Al  Al0  1  0.16666667  0.33333333  0.44097965  1
  Al  Al1  1  0.33125266  0.16874734  0.94099228  1
  Al  Al2  1  0.33125266  0.66250534  0.94099228  1
  Al  Al3  1  0.83749466  0.16874734  0.94099228  1
  N  N4  1  0.16666667  0.33333333  0.94098396  1
  N  N5  1  0.32370758  0.17629242  0.44099005  1
  N  N6  1  0.18442385  0.84221192  0.94100207  1
  N  N7  1  0.32370758  0.64741517  0.44099005  1
  N  N8  1  0.65778808  0.31557615  0.94100207  1
  N  N9  1  0.85258483  0.17629242  0.44099005  1
  N  N10  1  0.65778808  0.84221192  0.94100207  1
  N  N11  1  0.83333333  0.66666667  0.44103351  1
  Ti  Ti12  1  0.17060503  0.83530251  0.44100694  1
  Ti  Ti13  1  0.66469749  0.32939497  0.44100694  1
  Ti  Ti14  1  0.66469749  0.83530251  0.44100694  1
  Ti  Ti15  1  0.83333333  0.66666667  0.94102882  1
