# generated using pymatgen
data_TiSiN2
_symmetry_space_group_name_H-M   'P 1'
_cell_length_a   6.62934881
_cell_length_b   6.62934881
_cell_length_c   4.54471314
_cell_angle_alpha   90.00000000
_cell_angle_beta   90.00000000
_cell_angle_gamma   120.00000004
_symmetry_Int_Tables_number   1
_chemical_formula_structural   TiSiN2
_chemical_formula_sum   'Ti4 Si4 N8'
_cell_volume   172.97321142
_cell_formula_units_Z   4
loop_
 _symmetry_equiv_pos_site_id
 _symmetry_equiv_pos_as_xyz
  1  'x, y, z'
loop_
 _atom_site_type_symbol
 _atom_site_label
 _atom_site_symmetry_multiplicity
 _atom_site_fract_x
 _atom_site_fract_y
 _atom_site_fract_z
 _atom_site_occupancy
  Si  Si0  1  0.16666667  0.33333333  0.39931455  1
  Si  Si1  1  0.33779578  0.16220422  0.89364754  1
  Si  Si2  1  0.33779578  0.67559157  0.89364754  1
  Si  Si3  1  0.82440843  0.16220422  0.89364754  1
  N  N4  1  0.16666667  0.33333333  0.01212112  1
  N  N5  1  0.30937239  0.19062761  0.51644007  1
  N  N6  1  0.20317894  0.85158946  0.92906188  1
  N  N7  1  0.30937239  0.61874479  0.51644007  1
  N  N8  1  0.64841054  0.29682106  0.92906188  1
  N  N9  1  0.88125521  0.19062761  0.51644007  1
  N  N10  1  0.64841054  0.85158946  0.92906188  1
  N  N11  1  0.83333333  0.66666667  0.43386707  1
  Ti  Ti12  1  0.17339969  0.83669983  0.41772715  1
  Ti  Ti13  1  0.66330017  0.32660031  0.41772715  1
  Ti  Ti14  1  0.66330017  0.83669983  0.41772715  1
  Ti  Ti15  1  0.83333333  0.66666667  0.94006734  1
