# generated using pymatgen
data_TiNbN2
_symmetry_space_group_name_H-M   'P 1'
_cell_length_a   7.19639557
_cell_length_b   7.19639556
_cell_length_c   4.31840529
_cell_angle_alpha   90.00000000
_cell_angle_beta   90.00000000
_cell_angle_gamma   120.00000007
_symmetry_Int_Tables_number   1
_chemical_formula_structural   TiNbN2
_chemical_formula_sum   'Ti4 Nb4 N8'
_cell_volume   193.67969180
_cell_formula_units_Z   4
loop_
 _symmetry_equiv_pos_site_id
 _symmetry_equiv_pos_as_xyz
  1  'x, y, z'
loop_
 _atom_site_type_symbol
 _atom_site_label
 _atom_site_symmetry_multiplicity
 _atom_site_fract_x
 _atom_site_fract_y
 _atom_site_fract_z
 _atom_site_occupancy
  Nb  Nb0  1  0.16666667  0.33333333  0.44100862  1
  Nb  Nb1  1  0.33587439  0.16412561  0.94100064  1
  Nb  Nb2  1  0.33587439  0.67174879  0.94100064  1
  Nb  Nb3  1  0.82825121  0.16412561  0.94100064  1
  N  N4  1  0.16666667  0.33333333  0.94100707  1
  N  N5  1  0.33951631  0.16048369  0.44099970  1
  N  N6  1  0.15660920  0.82830460  0.94099885  1
  N  N7  1  0.33951631  0.67903262  0.44099970  1
  N  N8  1  0.67169540  0.34339080  0.94099885  1
  N  N9  1  0.82096738  0.16048369  0.44099970  1
  N  N10  1  0.67169540  0.82830460  0.94099885  1
  N  N11  1  0.83333333  0.66666667  0.44099327  1
  Ti  Ti12  1  0.16126133  0.83063067  0.44099941  1
  Ti  Ti13  1  0.66936933  0.33873867  0.44099941  1
  Ti  Ti14  1  0.66936933  0.83063067  0.44099941  1
  Ti  Ti15  1  0.83333333  0.66666667  0.94099526  1
