# generated using pymatgen
data_Ti3AlN4
_symmetry_space_group_name_H-M   'P 1'
_cell_length_a   6.93408129
_cell_length_b   6.94810512
_cell_length_c   4.22879237
_cell_angle_alpha   90.00000000
_cell_angle_beta   90.00000000
_cell_angle_gamma   119.93325533
_symmetry_Int_Tables_number   1
_chemical_formula_structural   Ti3AlN4
_chemical_formula_sum   'Ti6 Al2 N8'
_cell_volume   176.56068325
_cell_formula_units_Z   2
loop_
 _symmetry_equiv_pos_site_id
 _symmetry_equiv_pos_as_xyz
  1  'x, y, z'
loop_
 _atom_site_type_symbol
 _atom_site_label
 _atom_site_symmetry_multiplicity
 _atom_site_fract_x
 _atom_site_fract_y
 _atom_site_fract_z
 _atom_site_occupancy
  Ti  Ti0  1  0.16416021  0.32832041  0.44097493  1
  Ti  Ti1  1  0.33294560  0.16182664  0.94099685  1
  Ti  Ti2  1  0.16705440  0.83817336  0.44099685  1
  Ti  Ti3  1  0.33583979  0.67167959  0.94097493  1
  Ti  Ti4  1  0.82888103  0.16182664  0.94099685  1
  Ti  Ti5  1  0.67111897  0.83817336  0.44099685  1
  N  N6  1  0.16593542  0.33187083  0.94096686  1
  N  N7  1  0.35468001  0.17548965  0.44098958  1
  N  N8  1  0.14531999  0.82451035  0.94098958  1
  N  N9  1  0.33406458  0.66812917  0.44096686  1
  N  N10  1  0.67357275  0.34714550  0.94098881  1
  N  N11  1  0.82080963  0.17548965  0.44098958  1
  N  N12  1  0.67919037  0.82451035  0.94098958  1
  N  N13  1  0.82642725  0.65285450  0.44098881  1
  Al  Al14  1  0.66952203  0.33904405  0.44109654  1
  Al  Al15  1  0.83047797  0.66095595  0.94109654  1
