# generated using pymatgen
data_Ti3SiN4
_symmetry_space_group_name_H-M   'P 1'
_cell_length_a   6.79847289
_cell_length_b   6.84453673
_cell_length_c   4.30960066
_cell_angle_alpha   90.00000000
_cell_angle_beta   90.00000000
_cell_angle_gamma   119.77762140
_symmetry_Int_Tables_number   1
_chemical_formula_structural   Ti3SiN4
_chemical_formula_sum   'Ti6 Si2 N8'
_cell_volume   174.05716936
_cell_formula_units_Z   2
loop_
 _symmetry_equiv_pos_site_id
 _symmetry_equiv_pos_as_xyz
  1  'x, y, z'
loop_
 _atom_site_type_symbol
 _atom_site_label
 _atom_site_symmetry_multiplicity
 _atom_site_fract_x
 _atom_site_fract_y
 _atom_site_fract_z
 _atom_site_occupancy
  Ti  Ti0  1  0.16486383  0.32972766  0.44394783  1
  Ti  Ti1  1  0.32667569  0.15545413  0.94029940  1
  Ti  Ti2  1  0.17332431  0.84454587  0.44029940  1
  Ti  Ti3  1  0.33513617  0.67027234  0.94394783  1
  Ti  Ti4  1  0.82877843  0.15545413  0.94029940  1
  Ti  Ti5  1  0.67122157  0.84454587  0.44029940  1
  N  N6  1  0.16667772  0.33335542  0.94374863  1
  N  N7  1  0.37818334  0.19095611  0.44818967  1
  N  N8  1  0.12181666  0.80904389  0.94818967  1
  N  N9  1  0.33332228  0.66664458  0.44374863  1
  N  N10  1  0.68506273  0.37012545  0.97876022  1
  N  N11  1  0.81277276  0.19095611  0.44818967  1
  N  N12  1  0.68722724  0.80904389  0.94818967  1
  N  N13  1  0.81493727  0.62987455  0.47876022  1
  Si  Si14  1  0.67122287  0.34244574  0.38456518  1
  Si  Si15  1  0.82877713  0.65755426  0.88456518  1
