# generated using pymatgen
data_TiN
_symmetry_space_group_name_H-M   'P 1'
_cell_length_a   7.04470955
_cell_length_b   7.04415157
_cell_length_c   4.23037301
_cell_angle_alpha   90.00000000
_cell_angle_beta   90.00000000
_cell_angle_gamma   120.00262028
_symmetry_Int_Tables_number   1
_chemical_formula_structural   TiN
_chemical_formula_sum   'Ti8 N8'
_cell_volume   181.79821349
_cell_formula_units_Z   8
loop_
 _symmetry_equiv_pos_site_id
 _symmetry_equiv_pos_as_xyz
  1  'x, y, z'
loop_
 _atom_site_type_symbol
 _atom_site_label
 _atom_site_symmetry_multiplicity
 _atom_site_fract_x
 _atom_site_fract_y
 _atom_site_fract_z
 _atom_site_occupancy
  Ti  Ti0  1  0.16665111  0.33330221  0.44099586  1
  Ti  Ti1  1  0.33333188  0.16668082  0.94099564  1
  Ti  Ti2  1  0.16666812  0.83331918  0.44099564  1
  Ti  Ti3  1  0.33334889  0.66669779  0.94099586  1
  Ti  Ti4  1  0.83334893  0.16668082  0.94099564  1
  Ti  Ti5  1  0.66665107  0.83331918  0.44099564  1
  Ti  Ti6  1  0.66664593  0.33329186  0.44099545  1
  Ti  Ti7  1  0.83335407  0.66670814  0.94099545  1
  N  N8  1  0.16666049  0.33332096  0.94100455  1
  N  N9  1  0.33333914  0.16669483  0.44100436  1
  N  N10  1  0.16666086  0.83330517  0.94100436  1
  N  N11  1  0.33333951  0.66667904  0.44100455  1
  N  N12  1  0.66665410  0.33330818  0.94100416  1
  N  N13  1  0.83335568  0.16669483  0.44100436  1
  N  N14  1  0.66664432  0.83330517  0.94100436  1
  N  N15  1  0.83334590  0.66669182  0.44100416  1
