# generated using pymatgen
data_Ti3VN4
_symmetry_space_group_name_H-M   'P 1'
_cell_length_a   6.97504550
_cell_length_b   6.99669049
_cell_length_c   4.18532410
_cell_angle_alpha   90.00000000
_cell_angle_beta   90.00000000
_cell_angle_gamma   119.89771707
_symmetry_Int_Tables_number   1
_chemical_formula_structural   Ti3VN4
_chemical_formula_sum   'Ti6 V2 N8'
_cell_volume   177.07046418
_cell_formula_units_Z   2
loop_
 _symmetry_equiv_pos_site_id
 _symmetry_equiv_pos_as_xyz
  1  'x, y, z'
loop_
 _atom_site_type_symbol
 _atom_site_label
 _atom_site_symmetry_multiplicity
 _atom_site_fract_x
 _atom_site_fract_y
 _atom_site_fract_z
 _atom_site_occupancy
  Ti  Ti0  1  0.16652861  0.33305719  0.44099454  1
  Ti  Ti1  1  0.33727397  0.16843311  0.94099569  1
  Ti  Ti2  1  0.16272603  0.83156689  0.44099569  1
  Ti  Ti3  1  0.33347139  0.66694281  0.94099454  1
  Ti  Ti4  1  0.83115912  0.16843311  0.94099569  1
  Ti  Ti5  1  0.66884088  0.83156689  0.44099569  1
  N  N6  1  0.16694925  0.33389849  0.94100066  1
  N  N7  1  0.33625824  0.16792474  0.44100159  1
  N  N8  1  0.16374176  0.83207526  0.94100159  1
  N  N9  1  0.33305075  0.66610151  0.44100066  1
  N  N10  1  0.67000076  0.34000149  0.94100645  1
  N  N11  1  0.83166649  0.16792474  0.44100159  1
  N  N12  1  0.66833351  0.83207526  0.94100159  1
  N  N13  1  0.82999924  0.65999851  0.44100645  1
  V  V14  1  0.66810781  0.33621560  0.44100377  1
  V  V15  1  0.83189219  0.66378440  0.94100377  1
