# generated using pymatgen
data_Ti3CrN4
_symmetry_space_group_name_H-M   'P 1'
_cell_length_a   6.89568189
_cell_length_b   7.00238200
_cell_length_c   4.15518353
_cell_angle_alpha   90.00000000
_cell_angle_beta   90.00000000
_cell_angle_gamma   119.49720862
_symmetry_Int_Tables_number   1
_chemical_formula_structural   Ti3CrN4
_chemical_formula_sum   'Ti6 Cr2 N8'
_cell_volume   174.63125470
_cell_formula_units_Z   2
loop_
 _symmetry_equiv_pos_site_id
 _symmetry_equiv_pos_as_xyz
  1  'x, y, z'
loop_
 _atom_site_type_symbol
 _atom_site_label
 _atom_site_symmetry_multiplicity
 _atom_site_fract_x
 _atom_site_fract_y
 _atom_site_fract_z
 _atom_site_occupancy
  Ti  Ti0  1  0.16569588  0.33139175  0.44103713  1
  Ti  Ti1  1  0.34382514  0.17173584  0.94102916  1
  Ti  Ti2  1  0.15617486  0.82826416  0.44102916  1
  Ti  Ti3  1  0.33430412  0.66860825  0.94103713  1
  Ti  Ti4  1  0.82791069  0.17173584  0.94102916  1
  Ti  Ti5  1  0.67208931  0.82826416  0.44102916  1
  N  N6  1  0.16838281  0.33676561  0.94103080  1
  N  N7  1  0.33354596  0.16416554  0.44101973  1
  N  N8  1  0.16645404  0.83583446  0.94101973  1
  N  N9  1  0.33161719  0.66323439  0.44103080  1
  N  N10  1  0.67899173  0.35798346  0.94099205  1
  N  N11  1  0.83061958  0.16416554  0.44101973  1
  N  N12  1  0.66938042  0.83583446  0.94101973  1
  N  N13  1  0.82100827  0.64201654  0.44099205  1
  Cr  Cr14  1  0.65909526  0.31819051  0.44084222  1
  Cr  Cr15  1  0.84090474  0.68180949  0.94084222  1
