# generated using pymatgen
data_Ti3MnN4
_symmetry_space_group_name_H-M   'P 1'
_cell_length_a   6.90143659
_cell_length_b   6.96768791
_cell_length_c   4.15224663
_cell_angle_alpha   90.00000000
_cell_angle_beta   90.00000000
_cell_angle_gamma   119.68596107
_symmetry_Int_Tables_number   1
_chemical_formula_structural   Ti3MnN4
_chemical_formula_sum   'Ti6 Mn2 N8'
_cell_volume   173.46329632
_cell_formula_units_Z   2
loop_
 _symmetry_equiv_pos_site_id
 _symmetry_equiv_pos_as_xyz
  1  'x, y, z'
loop_
 _atom_site_type_symbol
 _atom_site_label
 _atom_site_symmetry_multiplicity
 _atom_site_fract_x
 _atom_site_fract_y
 _atom_site_fract_z
 _atom_site_occupancy
  Ti  Ti0  1  0.16566173  0.33132346  0.44093836  1
  Ti  Ti1  1  0.34621726  0.17384667  0.94093093  1
  Ti  Ti2  1  0.15378274  0.82615333  0.44093093  1
  Ti  Ti3  1  0.33433827  0.66867654  0.94093836  1
  Ti  Ti4  1  0.82762941  0.17384667  0.94093093  1
  Ti  Ti5  1  0.67237059  0.82615333  0.44093093  1
  N  N6  1  0.16835151  0.33670300  0.94092536  1
  N  N7  1  0.33031742  0.16318864  0.44094402  1
  N  N8  1  0.16968258  0.83681136  0.94094402  1
  N  N9  1  0.33164849  0.66329700  0.44092536  1
  N  N10  1  0.67889433  0.35778867  0.94107191  1
  N  N11  1  0.83287122  0.16318864  0.44094402  1
  N  N12  1  0.66712878  0.83681136  0.94094402  1
  N  N13  1  0.82110567  0.64221133  0.44107191  1
  Mn  Mn14  1  0.65777615  0.31555229  0.44131447  1
  Mn  Mn15  1  0.84222385  0.68444771  0.94131447  1
