# generated using pymatgen
data_Ti3FeN4
_symmetry_space_group_name_H-M   'P 1'
_cell_length_a   6.92396812
_cell_length_b   6.96020520
_cell_length_c   4.15270262
_cell_angle_alpha   90.00000000
_cell_angle_beta   90.00000000
_cell_angle_gamma   119.82792512
_symmetry_Int_Tables_number   1
_chemical_formula_structural   Ti3FeN4
_chemical_formula_sum   'Ti6 Fe2 N8'
_cell_volume   173.61570144
_cell_formula_units_Z   2
loop_
 _symmetry_equiv_pos_site_id
 _symmetry_equiv_pos_as_xyz
  1  'x, y, z'
loop_
 _atom_site_type_symbol
 _atom_site_label
 _atom_site_symmetry_multiplicity
 _atom_site_fract_x
 _atom_site_fract_y
 _atom_site_fract_z
 _atom_site_occupancy
  Ti  Ti0  1  0.16518179  0.33036357  0.44099232  1
  Ti  Ti1  1  0.34811635  0.17520640  0.94099577  1
  Ti  Ti2  1  0.15188365  0.82479360  0.44099577  1
  Ti  Ti3  1  0.33481821  0.66963643  0.94099232  1
  Ti  Ti4  1  0.82709004  0.17520640  0.94099577  1
  Ti  Ti5  1  0.67290996  0.82479360  0.44099577  1
  N  N6  1  0.16829433  0.33658863  0.94099102  1
  N  N7  1  0.32476880  0.16137069  0.44099681  1
  N  N8  1  0.17523120  0.83862931  0.94099681  1
  N  N9  1  0.33170567  0.66341137  0.44099102  1
  N  N10  1  0.67552774  0.35105547  0.94101492  1
  N  N11  1  0.83660189  0.16137069  0.44099681  1
  N  N12  1  0.66339811  0.83862931  0.94099681  1
  N  N13  1  0.82447226  0.64894453  0.44101492  1
  Fe  Fe14  1  0.65827251  0.31654501  0.44101657  1
  Fe  Fe15  1  0.84172749  0.68345499  0.94101657  1
