# generated using pymatgen
data_Ti3CoN4
_symmetry_space_group_name_H-M   'P 1'
_cell_length_a   6.91824969
_cell_length_b   7.00125733
_cell_length_c   4.15799540
_cell_angle_alpha   90.00000000
_cell_angle_beta   90.00000000
_cell_angle_gamma   119.60857209
_symmetry_Int_Tables_number   1
_chemical_formula_structural   Ti3CoN4
_chemical_formula_sum   'Ti6 Co2 N8'
_cell_volume   175.10010769
_cell_formula_units_Z   2
loop_
 _symmetry_equiv_pos_site_id
 _symmetry_equiv_pos_as_xyz
  1  'x, y, z'
loop_
 _atom_site_type_symbol
 _atom_site_label
 _atom_site_symmetry_multiplicity
 _atom_site_fract_x
 _atom_site_fract_y
 _atom_site_fract_z
 _atom_site_occupancy
  Ti  Ti0  1  0.16568387  0.33136772  0.44104151  1
  Ti  Ti1  1  0.34751948  0.17401342  0.94105430  1
  Ti  Ti2  1  0.15248052  0.82598658  0.44105430  1
  Ti  Ti3  1  0.33431613  0.66863228  0.94104151  1
  Ti  Ti4  1  0.82649393  0.17401342  0.94105430  1
  Ti  Ti5  1  0.67350607  0.82598658  0.44105430  1
  N  N6  1  0.16854159  0.33708317  0.94104772  1
  N  N7  1  0.31697257  0.15691101  0.44103824  1
  N  N8  1  0.18302743  0.84308899  0.94103824  1
  N  N9  1  0.33145841  0.66291683  0.44104772  1
  N  N10  1  0.67003745  0.34007490  0.94092957  1
  N  N11  1  0.83993844  0.15691101  0.44103824  1
  N  N12  1  0.66006156  0.84308899  0.94103824  1
  N  N13  1  0.82996255  0.65992510  0.44092957  1
  Co  Co14  1  0.66393977  0.32787953  0.44079612  1
  Co  Co15  1  0.83606023  0.67212047  0.94079612  1
