# generated using pymatgen
data_Ti3NiN4
_symmetry_space_group_name_H-M   'P 1'
_cell_length_a   6.95582711
_cell_length_b   7.26967345
_cell_length_c   4.15708950
_cell_angle_alpha   90.00000000
_cell_angle_beta   90.00000000
_cell_angle_gamma   118.58186895
_symmetry_Int_Tables_number   1
_chemical_formula_structural   Ti3NiN4
_chemical_formula_sum   'Ti6 Ni2 N8'
_cell_volume   184.59250061
_cell_formula_units_Z   2
loop_
 _symmetry_equiv_pos_site_id
 _symmetry_equiv_pos_as_xyz
  1  'x, y, z'
loop_
 _atom_site_type_symbol
 _atom_site_label
 _atom_site_symmetry_multiplicity
 _atom_site_fract_x
 _atom_site_fract_y
 _atom_site_fract_z
 _atom_site_occupancy
  Ti  Ti0  1  0.16678927  0.33357853  0.44099864  1
  Ti  Ti1  1  0.33754144  0.16299966  0.94099776  1
  Ti  Ti2  1  0.16245856  0.83700034  0.44099776  1
  Ti  Ti3  1  0.33321073  0.66642147  0.94099864  1
  Ti  Ti4  1  0.82545821  0.16299966  0.94099776  1
  Ti  Ti5  1  0.67454179  0.83700034  0.44099776  1
  N  N6  1  0.17292384  0.34584768  0.94099782  1
  N  N7  1  0.30587261  0.15426419  0.44099933  1
  N  N8  1  0.19412739  0.84573581  0.94099933  1
  N  N9  1  0.32707616  0.65415232  0.44099782  1
  N  N10  1  0.64530449  0.29060897  0.94100785  1
  N  N11  1  0.84839156  0.15426419  0.44099933  1
  N  N12  1  0.65160844  0.84573581  0.94099933  1
  N  N13  1  0.85469551  0.70939103  0.44100785  1
  Ni  Ni14  1  0.61720804  0.23441607  0.44100152  1
  Ni  Ni15  1  0.88279196  0.76558393  0.94100152  1
