# generated using pymatgen
data_YTi3N4
_symmetry_space_group_name_H-M   'P 1'
_cell_length_a   7.23157856
_cell_length_b   7.27176042
_cell_length_c   4.42957274
_cell_angle_alpha   90.00000000
_cell_angle_beta   90.00000000
_cell_angle_gamma   119.81737773
_symmetry_Int_Tables_number   1
_chemical_formula_structural   YTi3N4
_chemical_formula_sum   'Y2 Ti6 N8'
_cell_volume   202.09771377
_cell_formula_units_Z   2
loop_
 _symmetry_equiv_pos_site_id
 _symmetry_equiv_pos_as_xyz
  1  'x, y, z'
loop_
 _atom_site_type_symbol
 _atom_site_label
 _atom_site_symmetry_multiplicity
 _atom_site_fract_x
 _atom_site_fract_y
 _atom_site_fract_z
 _atom_site_occupancy
  Ti  Ti0  1  0.16808054  0.33616108  0.44099932  1
  Ti  Ti1  1  0.32421789  0.16049144  0.94100015  1
  Ti  Ti2  1  0.17578211  0.83950856  0.44100015  1
  Ti  Ti3  1  0.33191946  0.66383892  0.94099932  1
  Ti  Ti4  1  0.83627354  0.16049144  0.94100015  1
  Ti  Ti5  1  0.66372646  0.83950856  0.44100015  1
  N  N6  1  0.16599961  0.33199920  0.94100001  1
  N  N7  1  0.30550828  0.15362243  0.44099959  1
  N  N8  1  0.19449172  0.84637757  0.94099959  1
  N  N9  1  0.33400039  0.66800080  0.44100001  1
  N  N10  1  0.64171955  0.28343910  0.94099931  1
  N  N11  1  0.84811414  0.15362243  0.44099959  1
  N  N12  1  0.65188586  0.84637757  0.94099959  1
  N  N13  1  0.85828045  0.71656090  0.44099931  1
  Y  Y14  1  0.66533250  0.33066500  0.44100189  1
  Y  Y15  1  0.83466750  0.66933500  0.94100189  1
