# generated using pymatgen
data_ZrTi3N4
_symmetry_space_group_name_H-M   'P 1'
_cell_length_a   7.16682330
_cell_length_b   7.17013782
_cell_length_c   4.34952061
_cell_angle_alpha   90.00000000
_cell_angle_beta   90.00000000
_cell_angle_gamma   119.98470952
_symmetry_Int_Tables_number   1
_chemical_formula_structural   ZrTi3N4
_chemical_formula_sum   'Zr2 Ti6 N8'
_cell_volume   193.59454645
_cell_formula_units_Z   2
loop_
 _symmetry_equiv_pos_site_id
 _symmetry_equiv_pos_as_xyz
  1  'x, y, z'
loop_
 _atom_site_type_symbol
 _atom_site_label
 _atom_site_symmetry_multiplicity
 _atom_site_fract_x
 _atom_site_fract_y
 _atom_site_fract_z
 _atom_site_occupancy
  Ti  Ti0  1  0.16769497  0.33538993  0.44101245  1
  Ti  Ti1  1  0.32802078  0.16592582  0.94099931  1
  Ti  Ti2  1  0.17197922  0.83407418  0.44099931  1
  Ti  Ti3  1  0.33230503  0.66461007  0.94101245  1
  Ti  Ti4  1  0.83790503  0.16592582  0.94099931  1
  Ti  Ti5  1  0.66209497  0.83407418  0.44099931  1
  N  N6  1  0.16661942  0.33323882  0.94101361  1
  N  N7  1  0.31574732  0.15760658  0.44100035  1
  N  N8  1  0.18425268  0.84239342  0.94100035  1
  N  N9  1  0.33338058  0.66676118  0.44101361  1
  N  N10  1  0.65879806  0.31759610  0.94098960  1
  N  N11  1  0.84185924  0.15760658  0.44100035  1
  N  N12  1  0.65814076  0.84239342  0.94100035  1
  N  N13  1  0.84120194  0.68240390  0.44098960  1
  Zr  Zr14  1  0.66381198  0.32762395  0.44098502  1
  Zr  Zr15  1  0.83618802  0.67237605  0.94098502  1
