# generated using pymatgen
data_Ti3NbN4
_symmetry_space_group_name_H-M   'P 1'
_cell_length_a   7.13852177
_cell_length_b   7.10652267
_cell_length_c   4.27869307
_cell_angle_alpha   90.00000000
_cell_angle_beta   90.00000000
_cell_angle_gamma   120.14906281
_symmetry_Int_Tables_number   1
_chemical_formula_structural   Ti3NbN4
_chemical_formula_sum   'Ti6 Nb2 N8'
_cell_volume   187.69508626
_cell_formula_units_Z   2
loop_
 _symmetry_equiv_pos_site_id
 _symmetry_equiv_pos_as_xyz
  1  'x, y, z'
loop_
 _atom_site_type_symbol
 _atom_site_label
 _atom_site_symmetry_multiplicity
 _atom_site_fract_x
 _atom_site_fract_y
 _atom_site_fract_z
 _atom_site_occupancy
  Ti  Ti0  1  0.16810250  0.33620500  0.44098524  1
  Ti  Ti1  1  0.33039219  0.16760811  0.94099876  1
  Ti  Ti2  1  0.16960781  0.83239189  0.44099876  1
  Ti  Ti3  1  0.33189750  0.66379500  0.94098524  1
  Ti  Ti4  1  0.83721591  0.16760811  0.94099876  1
  Ti  Ti5  1  0.66278409  0.83239189  0.44099876  1
  N  N6  1  0.16667238  0.33334473  0.94098321  1
  N  N7  1  0.32388983  0.16285635  0.44099849  1
  N  N8  1  0.17611017  0.83714365  0.94099849  1
  N  N9  1  0.33332762  0.66665527  0.44098321  1
  N  N10  1  0.65904984  0.31809967  0.94101791  1
  N  N11  1  0.83896652  0.16285635  0.44099849  1
  N  N12  1  0.66103348  0.83714365  0.94099849  1
  N  N13  1  0.84095016  0.68190033  0.44101791  1
  Nb  Nb14  1  0.66741930  0.33483859  0.44101914  1
  Nb  Nb15  1  0.83258070  0.66516141  0.94101914  1
