# generated using pymatgen
data_Ti3MoN4
_symmetry_space_group_name_H-M   'P 1'
_cell_length_a   6.96486575
_cell_length_b   7.16070169
_cell_length_c   4.21192750
_cell_angle_alpha   90.00000000
_cell_angle_beta   90.00000000
_cell_angle_gamma   119.09936173
_symmetry_Int_Tables_number   1
_chemical_formula_structural   Ti3MoN4
_chemical_formula_sum   'Ti6 Mo2 N8'
_cell_volume   183.54820673
_cell_formula_units_Z   2
loop_
 _symmetry_equiv_pos_site_id
 _symmetry_equiv_pos_as_xyz
  1  'x, y, z'
loop_
 _atom_site_type_symbol
 _atom_site_label
 _atom_site_symmetry_multiplicity
 _atom_site_fract_x
 _atom_site_fract_y
 _atom_site_fract_z
 _atom_site_occupancy
  Ti  Ti0  1  0.16713119  0.33426235  0.44099907  1
  Ti  Ti1  1  0.33580985  0.16796275  0.94099940  1
  Ti  Ti2  1  0.16419015  0.83203725  0.44099940  1
  Ti  Ti3  1  0.33286881  0.66573765  0.94099907  1
  Ti  Ti4  1  0.83215289  0.16796275  0.94099940  1
  Ti  Ti5  1  0.66784711  0.83203725  0.44099940  1
  N  N6  1  0.17023689  0.34047377  0.94099663  1
  N  N7  1  0.31901053  0.15770243  0.44099816  1
  N  N8  1  0.18098947  0.84229757  0.94099816  1
  N  N9  1  0.32976311  0.65952623  0.44099663  1
  N  N10  1  0.67430765  0.34861530  0.94100650  1
  N  N11  1  0.83869189  0.15770243  0.44099816  1
  N  N12  1  0.66130811  0.84229757  0.94099816  1
  N  N13  1  0.82569235  0.65138470  0.44100650  1
  Mo  Mo14  1  0.65647521  0.31295041  0.44100267  1
  Mo  Mo15  1  0.84352479  0.68704959  0.94100267  1
