# generated using pymatgen
data_TaTi3N4
_symmetry_space_group_name_H-M   'P 1'
_cell_length_a   7.11271024
_cell_length_b   7.11515661
_cell_length_c   4.26679174
_cell_angle_alpha   90.00000000
_cell_angle_beta   90.00000000
_cell_angle_gamma   119.98862701
_symmetry_Int_Tables_number   1
_chemical_formula_structural   TaTi3N4
_chemical_formula_sum   'Ta2 Ti6 N8'
_cell_volume   187.02575524
_cell_formula_units_Z   2
loop_
 _symmetry_equiv_pos_site_id
 _symmetry_equiv_pos_as_xyz
  1  'x, y, z'
loop_
 _atom_site_type_symbol
 _atom_site_label
 _atom_site_symmetry_multiplicity
 _atom_site_fract_x
 _atom_site_fract_y
 _atom_site_fract_z
 _atom_site_occupancy
  Ti  Ti0  1  0.16835109  0.33670216  0.44099186  1
  Ti  Ti1  1  0.32867823  0.16669223  0.94099585  1
  Ti  Ti2  1  0.17132177  0.83330777  0.44099585  1
  Ti  Ti3  1  0.33164891  0.66329784  0.94099186  1
  Ti  Ti4  1  0.83801399  0.16669223  0.94099585  1
  Ti  Ti5  1  0.66198601  0.83330777  0.44099585  1
  N  N6  1  0.16680117  0.33360232  0.94100128  1
  N  N7  1  0.32784419  0.16419496  0.44100422  1
  N  N8  1  0.17215581  0.83580504  0.94100422  1
  N  N9  1  0.33319883  0.66639768  0.44100128  1
  N  N10  1  0.66189234  0.32378465  0.94103144  1
  N  N11  1  0.83635076  0.16419496  0.44100422  1
  N  N12  1  0.66364924  0.83580504  0.94100422  1
  N  N13  1  0.83810766  0.67621535  0.44103144  1
  Ta  Ta14  1  0.66622897  0.33245794  0.44097527  1
  Ta  Ta15  1  0.83377103  0.66754206  0.94097527  1
