# generated using pymatgen
data_Ti3WN4
_symmetry_space_group_name_H-M   'P 1'
_cell_length_a   6.95156691
_cell_length_b   7.18531222
_cell_length_c   4.20582142
_cell_angle_alpha   90.00000000
_cell_angle_beta   90.00000000
_cell_angle_gamma   118.92959383
_symmetry_Int_Tables_number   1
_chemical_formula_structural   Ti3WN4
_chemical_formula_sum   'Ti6 W2 N8'
_cell_volume   183.86278249
_cell_formula_units_Z   2
loop_
 _symmetry_equiv_pos_site_id
 _symmetry_equiv_pos_as_xyz
  1  'x, y, z'
loop_
 _atom_site_type_symbol
 _atom_site_label
 _atom_site_symmetry_multiplicity
 _atom_site_fract_x
 _atom_site_fract_y
 _atom_site_fract_z
 _atom_site_occupancy
  Ti  Ti0  1  0.16707465  0.33414927  0.44099515  1
  Ti  Ti1  1  0.33447402  0.16564522  0.94099782  1
  Ti  Ti2  1  0.16552598  0.83435478  0.44099782  1
  Ti  Ti3  1  0.33292535  0.66585073  0.94099515  1
  Ti  Ti4  1  0.83117119  0.16564522  0.94099782  1
  Ti  Ti5  1  0.66882881  0.83435478  0.44099782  1
  N  N6  1  0.17100572  0.34201143  0.94099242  1
  N  N7  1  0.32196306  0.15948917  0.44099620  1
  N  N8  1  0.17803694  0.84051083  0.94099620  1
  N  N9  1  0.32899428  0.65798857  0.44099242  1
  N  N10  1  0.67923986  0.35847971  0.94101299  1
  N  N11  1  0.83752610  0.15948917  0.44099620  1
  N  N12  1  0.66247390  0.84051083  0.94099620  1
  N  N13  1  0.82076014  0.64152029  0.44101299  1
  W  W14  1  0.65391470  0.30782938  0.44101138  1
  W  W15  1  0.84608530  0.69217062  0.94101138  1
