# generated using pymatgen
data_Ti3ReN4
_symmetry_space_group_name_H-M   'P 1'
_cell_length_a   6.93326181
_cell_length_b   7.18009536
_cell_length_c   4.17840029
_cell_angle_alpha   90.00000000
_cell_angle_beta   90.00000000
_cell_angle_gamma   118.86917149
_symmetry_Int_Tables_number   1
_chemical_formula_structural   Ti3ReN4
_chemical_formula_sum   'Ti6 Re2 N8'
_cell_volume   182.15677259
_cell_formula_units_Z   2
loop_
 _symmetry_equiv_pos_site_id
 _symmetry_equiv_pos_as_xyz
  1  'x, y, z'
loop_
 _atom_site_type_symbol
 _atom_site_label
 _atom_site_symmetry_multiplicity
 _atom_site_fract_x
 _atom_site_fract_y
 _atom_site_fract_z
 _atom_site_occupancy
  Ti  Ti0  1  0.16780898  0.33561795  0.44100632  1
  Ti  Ti1  1  0.33626865  0.16762335  0.94100807  1
  Ti  Ti2  1  0.16373135  0.83237665  0.44100807  1
  Ti  Ti3  1  0.33219102  0.66438205  0.94100632  1
  Ti  Ti4  1  0.83135469  0.16762335  0.94100807  1
  Ti  Ti5  1  0.66864531  0.83237665  0.44100807  1
  N  N6  1  0.17104164  0.34208329  0.94100853  1
  N  N7  1  0.31378553  0.15576418  0.44100796  1
  N  N8  1  0.18621447  0.84423582  0.94100796  1
  N  N9  1  0.32895836  0.65791671  0.44100853  1
  N  N10  1  0.68258097  0.36516192  0.94098080  1
  N  N11  1  0.84197864  0.15576418  0.44100796  1
  N  N12  1  0.65802136  0.84423582  0.94100796  1
  N  N13  1  0.81741903  0.63483808  0.44098080  1
  Re  Re14  1  0.64937950  0.29875897  0.44097230  1
  Re  Re15  1  0.85062050  0.70124103  0.94097230  1
