# generated using pymatgen
data_Ti3OsN4
_symmetry_space_group_name_H-M   'P 1'
_cell_length_a   7.04457560
_cell_length_b   7.13367691
_cell_length_c   4.16901539
_cell_angle_alpha   90.00000000
_cell_angle_beta   90.00000000
_cell_angle_gamma   119.58767929
_symmetry_Int_Tables_number   1
_chemical_formula_structural   Ti3OsN4
_chemical_formula_sum   'Ti6 Os2 N8'
_cell_volume   182.18887814
_cell_formula_units_Z   2
loop_
 _symmetry_equiv_pos_site_id
 _symmetry_equiv_pos_as_xyz
  1  'x, y, z'
loop_
 _atom_site_type_symbol
 _atom_site_label
 _atom_site_symmetry_multiplicity
 _atom_site_fract_x
 _atom_site_fract_y
 _atom_site_fract_z
 _atom_site_occupancy
  Ti  Ti0  1  0.16670807  0.33341612  0.44099638  1
  Ti  Ti1  1  0.33764285  0.16966750  0.94099171  1
  Ti  Ti2  1  0.16235715  0.83033250  0.44099171  1
  Ti  Ti3  1  0.33329193  0.66658388  0.94099638  1
  Ti  Ti4  1  0.83202463  0.16966750  0.94099171  1
  Ti  Ti5  1  0.66797537  0.83033250  0.44099171  1
  N  N6  1  0.17014610  0.34029219  0.94099555  1
  N  N7  1  0.30454173  0.15428969  0.44099178  1
  N  N8  1  0.19545827  0.84571031  0.94099178  1
  N  N9  1  0.32985390  0.65970781  0.44099555  1
  N  N10  1  0.67816317  0.35632633  0.94101668  1
  N  N11  1  0.84974795  0.15428969  0.44099178  1
  N  N12  1  0.65025205  0.84571031  0.94099178  1
  N  N13  1  0.82183683  0.64367367  0.44101668  1
  Os  Os14  1  0.64388165  0.28776328  0.44102443  1
  Os  Os15  1  0.85611835  0.71223672  0.94102443  1
