# generated using pymatgen
data_TiB3N4
_symmetry_space_group_name_H-M   'P 1'
_cell_length_a   6.31536061
_cell_length_b   6.31536062
_cell_length_c   4.44394521
_cell_angle_alpha   89.93660622
_cell_angle_beta   90.06339373
_cell_angle_gamma   131.45373273
_symmetry_Int_Tables_number   1
_chemical_formula_structural   TiB3N4
_chemical_formula_sum   'Ti2 B6 N8'
_cell_volume   132.84060590
_cell_formula_units_Z   2
loop_
 _symmetry_equiv_pos_site_id
 _symmetry_equiv_pos_as_xyz
  1  'x, y, z'
loop_
 _atom_site_type_symbol
 _atom_site_label
 _atom_site_symmetry_multiplicity
 _atom_site_fract_x
 _atom_site_fract_y
 _atom_site_fract_z
 _atom_site_occupancy
  B  B0  1  0.14634618  0.35365382  0.31647952  1
  B  B1  1  0.33992531  0.16007469  0.04708203  1
  B  B2  1  0.12205571  0.87794429  0.55197335  1
  B  B3  1  0.62205571  0.37794429  0.55197335  1
  B  B4  1  0.64634618  0.85365382  0.31647952  1
  B  B5  1  0.83992531  0.66007469  0.04708203  1
  N  N6  1  0.20076312  0.29923688  0.01567785  1
  N  N7  1  0.36359640  0.13640360  0.39529869  1
  N  N8  1  0.13960214  0.86039786  0.88971448  1
  N  N9  1  0.35893714  0.64106286  0.43928325  1
  N  N10  1  0.63960214  0.36039786  0.88971448  1
  N  N11  1  0.85893714  0.14106286  0.43928325  1
  N  N12  1  0.70076312  0.79923688  0.01567785  1
  N  N13  1  0.86359640  0.63640360  0.39529869  1
  Ti  Ti14  1  0.32877399  0.67122601  0.87249084  1
  Ti  Ti15  1  0.82877399  0.17122601  0.87249084  1
