# generated using pymatgen
data_TiAl3N4
_symmetry_space_group_name_H-M   'P 1'
_cell_length_a   6.78393314
_cell_length_b   6.78393313
_cell_length_c   4.20950009
_cell_angle_alpha   89.99920027
_cell_angle_beta   90.00079965
_cell_angle_gamma   120.64045943
_symmetry_Int_Tables_number   1
_chemical_formula_structural   TiAl3N4
_chemical_formula_sum   'Ti2 Al6 N8'
_cell_volume   166.68063057
_cell_formula_units_Z   2
loop_
 _symmetry_equiv_pos_site_id
 _symmetry_equiv_pos_as_xyz
  1  'x, y, z'
loop_
 _atom_site_type_symbol
 _atom_site_label
 _atom_site_symmetry_multiplicity
 _atom_site_fract_x
 _atom_site_fract_y
 _atom_site_fract_z
 _atom_site_occupancy
  Al  Al0  1  0.16823926  0.33176074  0.44094569  1
  Al  Al1  1  0.33455697  0.16544303  0.94096988  1
  Al  Al2  1  0.16450820  0.83549179  0.44098425  1
  Al  Al3  1  0.66450820  0.33549179  0.44098425  1
  Al  Al4  1  0.66823926  0.83176074  0.44094569  1
  Al  Al5  1  0.83455697  0.66544303  0.94096988  1
  N  N6  1  0.17351257  0.32648743  0.94101821  1
  N  N7  1  0.33255174  0.16744825  0.44104508  1
  N  N8  1  0.15969529  0.84030471  0.94104712  1
  N  N9  1  0.33207853  0.66792148  0.44100206  1
  N  N10  1  0.65969529  0.34030471  0.94104712  1
  N  N11  1  0.83207853  0.16792148  0.44100206  1
  N  N12  1  0.67351257  0.82648743  0.94101821  1
  N  N13  1  0.83255174  0.66744825  0.44104508  1
  Ti  Ti14  1  0.33485743  0.66514257  0.94098770  1
  Ti  Ti15  1  0.83485743  0.16514257  0.94098770  1
