# generated using pymatgen
data_TiN
_symmetry_space_group_name_H-M   'P 1'
_cell_length_a   7.04435576
_cell_length_b   7.04435576
_cell_length_c   4.23043796
_cell_angle_alpha   89.99999365
_cell_angle_beta   90.00000637
_cell_angle_gamma   120.00859899
_symmetry_Int_Tables_number   1
_chemical_formula_structural   TiN
_chemical_formula_sum   'Ti8 N8'
_cell_volume   181.78618944
_cell_formula_units_Z   8
loop_
 _symmetry_equiv_pos_site_id
 _symmetry_equiv_pos_as_xyz
  1  'x, y, z'
loop_
 _atom_site_type_symbol
 _atom_site_label
 _atom_site_symmetry_multiplicity
 _atom_site_fract_x
 _atom_site_fract_y
 _atom_site_fract_z
 _atom_site_occupancy
  Ti  Ti0  1  0.16668724  0.33331276  0.44100084  1
  Ti  Ti1  1  0.33332324  0.16667676  0.94100059  1
  Ti  Ti2  1  0.16668591  0.83331409  0.44100091  1
  Ti  Ti3  1  0.66668591  0.33331409  0.44100091  1
  Ti  Ti4  1  0.66668724  0.83331276  0.44100084  1
  Ti  Ti5  1  0.83332324  0.66667676  0.94100059  1
  Ti  Ti6  1  0.33330344  0.66669656  0.94100109  1
  Ti  Ti7  1  0.83330344  0.16669656  0.94100109  1
  N  N8  1  0.16668417  0.33331583  0.94099949  1
  N  N9  1  0.33331722  0.16668278  0.44099896  1
  N  N10  1  0.16667804  0.83332196  0.94099884  1
  N  N11  1  0.33332075  0.66667925  0.44099928  1
  N  N12  1  0.66667804  0.33332196  0.94099884  1
  N  N13  1  0.83332075  0.16667925  0.44099928  1
  N  N14  1  0.66668417  0.83331583  0.94099949  1
  N  N15  1  0.83331722  0.66668278  0.44099896  1
