# generated using pymatgen
data_TiCr3N4
_symmetry_space_group_name_H-M   'P 1'
_cell_length_a   6.85190576
_cell_length_b   6.85190576
_cell_length_c   4.05717107
_cell_angle_alpha   90.01000022
_cell_angle_beta   89.98999986
_cell_angle_gamma   122.66983601
_symmetry_Int_Tables_number   1
_chemical_formula_structural   TiCr3N4
_chemical_formula_sum   'Ti2 Cr6 N8'
_cell_volume   160.34390533
_cell_formula_units_Z   2
loop_
 _symmetry_equiv_pos_site_id
 _symmetry_equiv_pos_as_xyz
  1  'x, y, z'
loop_
 _atom_site_type_symbol
 _atom_site_label
 _atom_site_symmetry_multiplicity
 _atom_site_fract_x
 _atom_site_fract_y
 _atom_site_fract_z
 _atom_site_occupancy
  Cr  Cr0  1  0.15977611  0.34022389  0.44100032  1
  Cr  Cr1  1  0.34450600  0.15549400  0.93983033  1
  Cr  Cr2  1  0.15951538  0.84048462  0.44144916  1
  Cr  Cr3  1  0.65951538  0.34048462  0.44144916  1
  Cr  Cr4  1  0.65977611  0.84022389  0.44100032  1
  Cr  Cr5  1  0.84450600  0.65549400  0.93983033  1
  N  N6  1  0.17981152  0.32018848  0.94109471  1
  N  N7  1  0.32348199  0.17651801  0.44095844  1
  N  N8  1  0.16897298  0.83102702  0.94145571  1
  N  N9  1  0.32780253  0.67219747  0.44111724  1
  N  N10  1  0.66897298  0.33102702  0.94145571  1
  N  N11  1  0.82780253  0.17219747  0.44111724  1
  N  N12  1  0.67981152  0.82018848  0.94109471  1
  N  N13  1  0.82348199  0.67651801  0.44095844  1
  Ti  Ti14  1  0.33613349  0.66386651  0.94109410  1
  Ti  Ti15  1  0.83613349  0.16386651  0.94109410  1
