# generated using pymatgen
data_TiMn3N4
_symmetry_space_group_name_H-M   'P 1'
_cell_length_a   6.39855085
_cell_length_b   6.39855084
_cell_length_c   4.52860695
_cell_angle_alpha   90.78400308
_cell_angle_beta   89.21599686
_cell_angle_gamma   119.92182888
_symmetry_Int_Tables_number   1
_chemical_formula_structural   TiMn3N4
_chemical_formula_sum   'Ti2 Mn6 N8'
_cell_volume   160.67407606
_cell_formula_units_Z   2
loop_
 _symmetry_equiv_pos_site_id
 _symmetry_equiv_pos_as_xyz
  1  'x, y, z'
loop_
 _atom_site_type_symbol
 _atom_site_label
 _atom_site_symmetry_multiplicity
 _atom_site_fract_x
 _atom_site_fract_y
 _atom_site_fract_z
 _atom_site_occupancy
  Mn  Mn0  1  0.16295618  0.33704382  0.46215695  1
  Mn  Mn1  1  0.33703271  0.16296729  0.04602557  1
  Mn  Mn2  1  0.16827080  0.83172920  0.47404306  1
  Mn  Mn3  1  0.66827080  0.33172920  0.47404306  1
  Mn  Mn4  1  0.66295618  0.83704382  0.46215695  1
  Mn  Mn5  1  0.83703271  0.66296729  0.04602557  1
  N  N6  1  0.18379074  0.31620926  0.88224109  1
  N  N7  1  0.33246256  0.16753744  0.43659798  1
  N  N8  1  0.15031494  0.84968506  0.89653487  1
  N  N9  1  0.33305344  0.66694656  0.40429803  1
  N  N10  1  0.65031494  0.34968506  0.89653487  1
  N  N11  1  0.83305344  0.16694656  0.40429803  1
  N  N12  1  0.68379074  0.81620926  0.88224109  1
  N  N13  1  0.83246256  0.66753744  0.43659798  1
  Ti  Ti14  1  0.33211862  0.66788138  0.92610245  1
  Ti  Ti15  1  0.83211862  0.16788138  0.92610245  1
