# generated using pymatgen
data_TiFe3N4
_symmetry_space_group_name_H-M   'P 1'
_cell_length_a   6.10253596
_cell_length_b   6.10253596
_cell_length_c   4.99431081
_cell_angle_alpha   89.72821537
_cell_angle_beta   90.27178466
_cell_angle_gamma   120.15955793
_symmetry_Int_Tables_number   1
_chemical_formula_structural   TiFe3N4
_chemical_formula_sum   'Ti2 Fe6 N8'
_cell_volume   160.81252694
_cell_formula_units_Z   2
loop_
 _symmetry_equiv_pos_site_id
 _symmetry_equiv_pos_as_xyz
  1  'x, y, z'
loop_
 _atom_site_type_symbol
 _atom_site_label
 _atom_site_symmetry_multiplicity
 _atom_site_fract_x
 _atom_site_fract_y
 _atom_site_fract_z
 _atom_site_occupancy
  Fe  Fe0  1  0.16015465  0.33984535  0.38327071  1
  Fe  Fe1  1  0.33981947  0.16018053  0.83494532  1
  Fe  Fe2  1  0.17094619  0.82905381  0.39550973  1
  Fe  Fe3  1  0.67094619  0.32905381  0.39550973  1
  Fe  Fe4  1  0.66015465  0.83984535  0.38327071  1
  Fe  Fe5  1  0.83981947  0.66018053  0.83494532  1
  N  N6  1  0.18320908  0.31679092  0.01644717  1
  N  N7  1  0.32926601  0.17073399  0.46880912  1
  N  N8  1  0.15059466  0.84940534  0.01670258  1
  N  N9  1  0.33628988  0.66371012  0.50686194  1
  N  N10  1  0.65059466  0.34940534  0.01670258  1
  N  N11  1  0.83628988  0.16371012  0.50686194  1
  N  N12  1  0.68320908  0.81679092  0.01644717  1
  N  N13  1  0.82926601  0.67073399  0.46880912  1
  Ti  Ti14  1  0.32972008  0.67027992  0.90545343  1
  Ti  Ti15  1  0.82972008  0.17027992  0.90545343  1
