# generated using pymatgen
data_TiCo3N4
_symmetry_space_group_name_H-M   'P 1'
_cell_length_a   6.07309396
_cell_length_b   6.07309396
_cell_length_c   5.07141718
_cell_angle_alpha   87.12586472
_cell_angle_beta   92.87413529
_cell_angle_gamma   119.20186599
_symmetry_Int_Tables_number   1
_chemical_formula_structural   TiCo3N4
_chemical_formula_sum   'Ti2 Co6 N8'
_cell_volume   162.99782078
_cell_formula_units_Z   2
loop_
 _symmetry_equiv_pos_site_id
 _symmetry_equiv_pos_as_xyz
  1  'x, y, z'
loop_
 _atom_site_type_symbol
 _atom_site_label
 _atom_site_symmetry_multiplicity
 _atom_site_fract_x
 _atom_site_fract_y
 _atom_site_fract_z
 _atom_site_occupancy
  Co  Co0  1  0.17214642  0.32785358  0.40086034  1
  Co  Co1  1  0.32891634  0.17108366  0.85221130  1
  Co  Co2  1  0.16858644  0.83141356  0.37534140  1
  Co  Co3  1  0.66858644  0.33141356  0.37534140  1
  Co  Co4  1  0.67214642  0.82785358  0.40086034  1
  Co  Co5  1  0.82891634  0.67108366  0.85221130  1
  N  N6  1  0.17005623  0.32994377  0.02475538  1
  N  N7  1  0.34329299  0.15670701  0.49579032  1
  N  N8  1  0.15222114  0.84777886  0.00590993  1
  N  N9  1  0.33702182  0.66297818  0.49253152  1
  N  N10  1  0.65222114  0.34777886  0.00590993  1
  N  N11  1  0.83702182  0.16297818  0.49253152  1
  N  N12  1  0.67005623  0.82994377  0.02475538  1
  N  N13  1  0.84329299  0.65670701  0.49579032  1
  Ti  Ti14  1  0.32775862  0.67224138  0.88059982  1
  Ti  Ti15  1  0.82775862  0.17224138  0.88059982  1
