# generated using pymatgen
data_TiNi3N4
_symmetry_space_group_name_H-M   'P 1'
_cell_length_a   6.75003806
_cell_length_b   6.75003805
_cell_length_c   4.05297826
_cell_angle_alpha   89.99420756
_cell_angle_beta   90.00579252
_cell_angle_gamma   118.23166885
_symmetry_Int_Tables_number   1
_chemical_formula_structural   TiNi3N4
_chemical_formula_sum   'Ti2 Ni6 N8'
_cell_volume   162.69843976
_cell_formula_units_Z   2
loop_
 _symmetry_equiv_pos_site_id
 _symmetry_equiv_pos_as_xyz
  1  'x, y, z'
loop_
 _atom_site_type_symbol
 _atom_site_label
 _atom_site_symmetry_multiplicity
 _atom_site_fract_x
 _atom_site_fract_y
 _atom_site_fract_z
 _atom_site_occupancy
  Ni  Ni0  1  0.17039423  0.32960577  0.44100377  1
  Ni  Ni1  1  0.33524575  0.16475425  0.94075829  1
  Ni  Ni2  1  0.16685471  0.83314529  0.44090387  1
  Ni  Ni3  1  0.66685471  0.33314529  0.44090387  1
  Ni  Ni4  1  0.67039423  0.82960577  0.44100377  1
  Ni  Ni5  1  0.83524575  0.66475425  0.94075829  1
  N  N6  1  0.16229095  0.33770905  0.94104486  1
  N  N7  1  0.33663455  0.16336545  0.44108151  1
  N  N8  1  0.16063020  0.83936980  0.94103335  1
  N  N9  1  0.33809582  0.66190418  0.44107752  1
  N  N10  1  0.66063020  0.33936980  0.94103335  1
  N  N11  1  0.83809582  0.16190418  0.44107752  1
  N  N12  1  0.66229095  0.83770905  0.94104486  1
  N  N13  1  0.83663455  0.66336545  0.44108151  1
  Ti  Ti14  1  0.32985378  0.67014622  0.94109683  1
  Ti  Ti15  1  0.82985378  0.17014622  0.94109683  1
