# generated using pymatgen
data_Zr3TiN4
_symmetry_space_group_name_H-M   'P 1'
_cell_length_a   7.44264504
_cell_length_b   7.44264503
_cell_length_c   4.52530998
_cell_angle_alpha   89.99812403
_cell_angle_beta   90.00187601
_cell_angle_gamma   120.26853747
_symmetry_Int_Tables_number   1
_chemical_formula_structural   Zr3TiN4
_chemical_formula_sum   'Zr6 Ti2 N8'
_cell_volume   216.49706964
_cell_formula_units_Z   2
loop_
 _symmetry_equiv_pos_site_id
 _symmetry_equiv_pos_as_xyz
  1  'x, y, z'
loop_
 _atom_site_type_symbol
 _atom_site_label
 _atom_site_symmetry_multiplicity
 _atom_site_fract_x
 _atom_site_fract_y
 _atom_site_fract_z
 _atom_site_occupancy
  Zr  Zr0  1  0.16582741  0.33417259  0.44099915  1
  Zr  Zr1  1  0.33067726  0.16932274  0.94100385  1
  Zr  Zr2  1  0.16830657  0.83169343  0.44099532  1
  Zr  Zr3  1  0.66830657  0.33169343  0.44099532  1
  Zr  Zr4  1  0.66582741  0.83417259  0.44099915  1
  Zr  Zr5  1  0.83067726  0.66932274  0.94100385  1
  N  N6  1  0.15703335  0.34296665  0.94098720  1
  N  N7  1  0.33388253  0.16611747  0.44102501  1
  N  N8  1  0.17666370  0.82333630  0.94100354  1
  N  N9  1  0.33225885  0.66774115  0.44097692  1
  N  N10  1  0.67666370  0.32333630  0.94100354  1
  N  N11  1  0.83225885  0.16774115  0.44097692  1
  N  N12  1  0.65703335  0.84296665  0.94098720  1
  N  N13  1  0.83388253  0.66611747  0.44102501  1
  Ti  Ti14  1  0.33535033  0.66464967  0.94100902  1
  Ti  Ti15  1  0.83535033  0.16464967  0.94100902  1
