# generated using pymatgen
data_TiMo3N4
_symmetry_space_group_name_H-M   'P 1'
_cell_length_a   7.38542537
_cell_length_b   7.38542536
_cell_length_c   4.29074845
_cell_angle_alpha   92.77529125
_cell_angle_beta   87.22470879
_cell_angle_gamma   127.38733855
_symmetry_Int_Tables_number   1
_chemical_formula_structural   TiMo3N4
_chemical_formula_sum   'Ti2 Mo6 N8'
_cell_volume   185.68218762
_cell_formula_units_Z   2
loop_
 _symmetry_equiv_pos_site_id
 _symmetry_equiv_pos_as_xyz
  1  'x, y, z'
loop_
 _atom_site_type_symbol
 _atom_site_label
 _atom_site_symmetry_multiplicity
 _atom_site_fract_x
 _atom_site_fract_y
 _atom_site_fract_z
 _atom_site_occupancy
  Mo  Mo0  1  0.15949049  0.34050951  0.45405586  1
  Mo  Mo1  1  0.33656657  0.16343343  0.89759111  1
  Mo  Mo2  1  0.16370577  0.83629423  0.48176563  1
  Mo  Mo3  1  0.66370577  0.33629423  0.48176563  1
  Mo  Mo4  1  0.65949049  0.84050951  0.45405586  1
  Mo  Mo5  1  0.83656657  0.66343343  0.89759111  1
  N  N6  1  0.17769539  0.32230461  0.94519623  1
  N  N7  1  0.31746592  0.18253408  0.40959344  1
  N  N8  1  0.18413814  0.81586186  0.96790563  1
  N  N9  1  0.32158923  0.67841077  0.43474519  1
  N  N10  1  0.68413814  0.31586186  0.96790563  1
  N  N11  1  0.82158923  0.17841077  0.43474519  1
  N  N12  1  0.67769539  0.82230461  0.94519623  1
  N  N13  1  0.81746592  0.68253408  0.40959344  1
  Ti  Ti14  1  0.33934850  0.66065150  0.93714690  1
  Ti  Ti15  1  0.83934850  0.16065150  0.93714690  1
