# generated using pymatgen
data_Ta3TiN4
_symmetry_space_group_name_H-M   'P 1'
_cell_length_a   7.26201038
_cell_length_b   7.26201038
_cell_length_c   4.31305970
_cell_angle_alpha   89.99727358
_cell_angle_beta   90.00272646
_cell_angle_gamma   120.35328560
_symmetry_Int_Tables_number   1
_chemical_formula_structural   Ta3TiN4
_chemical_formula_sum   'Ta6 Ti2 N8'
_cell_volume   196.27850182
_cell_formula_units_Z   2
loop_
 _symmetry_equiv_pos_site_id
 _symmetry_equiv_pos_as_xyz
  1  'x, y, z'
loop_
 _atom_site_type_symbol
 _atom_site_label
 _atom_site_symmetry_multiplicity
 _atom_site_fract_x
 _atom_site_fract_y
 _atom_site_fract_z
 _atom_site_occupancy
  Ta  Ta0  1  0.16632033  0.33367967  0.44102145  1
  Ta  Ta1  1  0.32889677  0.17110323  0.94096265  1
  Ta  Ta2  1  0.16664263  0.83335737  0.44103199  1
  Ta  Ta3  1  0.66664263  0.33335737  0.44103199  1
  Ta  Ta4  1  0.66632033  0.83367967  0.44102145  1
  Ta  Ta5  1  0.82889677  0.67110323  0.94096265  1
  N  N6  1  0.16211876  0.33788124  0.94100937  1
  N  N7  1  0.33329061  0.16670939  0.44096215  1
  N  N8  1  0.17253190  0.82746810  0.94105210  1
  N  N9  1  0.33258413  0.66741587  0.44097308  1
  N  N10  1  0.67253190  0.32746810  0.94105210  1
  N  N11  1  0.83258413  0.16741587  0.44097308  1
  N  N12  1  0.66211876  0.83788124  0.94100937  1
  N  N13  1  0.83329061  0.66670939  0.44096215  1
  Ti  Ti14  1  0.33761485  0.66238515  0.94098721  1
  Ti  Ti15  1  0.83761485  0.16238515  0.94098721  1
