# generated using pymatgen
data_TiW3N4
_symmetry_space_group_name_H-M   'P 1'
_cell_length_a   7.61767222
_cell_length_b   7.61767221
_cell_length_c   4.24877808
_cell_angle_alpha   85.69068635
_cell_angle_beta   94.30931367
_cell_angle_gamma   131.61729661
_symmetry_Int_Tables_number   1
_chemical_formula_structural   TiW3N4
_chemical_formula_sum   'Ti2 W6 N8'
_cell_volume   183.69529266
_cell_formula_units_Z   2
loop_
 _symmetry_equiv_pos_site_id
 _symmetry_equiv_pos_as_xyz
  1  'x, y, z'
loop_
 _atom_site_type_symbol
 _atom_site_label
 _atom_site_symmetry_multiplicity
 _atom_site_fract_x
 _atom_site_fract_y
 _atom_site_fract_z
 _atom_site_occupancy
  W  W0  1  0.16261595  0.33738405  0.42326856  1
  W  W1  1  0.33617006  0.16382994  0.98034189  1
  W  W2  1  0.16390970  0.83609030  0.40480586  1
  W  W3  1  0.66390970  0.33609030  0.40480586  1
  W  W4  1  0.66261595  0.83738405  0.42326856  1
  W  W5  1  0.83617006  0.66382994  0.98034189  1
  N  N6  1  0.18294808  0.31705192  0.93477214  1
  N  N7  1  0.31474980  0.18525020  0.47744613  1
  N  N8  1  0.18674033  0.81325967  0.91366734  1
  N  N9  1  0.31341337  0.68658663  0.44979303  1
  N  N10  1  0.68674033  0.31325967  0.91366734  1
  N  N11  1  0.81341337  0.18658663  0.44979303  1
  N  N12  1  0.68294808  0.81705192  0.93477214  1
  N  N13  1  0.81474980  0.68525020  0.47744613  1
  Ti  Ti14  1  0.33945270  0.66054730  0.94390504  1
  Ti  Ti15  1  0.83945270  0.16054730  0.94390504  1
