# generated using pymatgen
data_TiRe3N4
_symmetry_space_group_name_H-M   'P 1'
_cell_length_a   6.51634142
_cell_length_b   6.51634142
_cell_length_c   5.42372937
_cell_angle_alpha   86.67748428
_cell_angle_beta   93.32251575
_cell_angle_gamma   126.85709289
_symmetry_Int_Tables_number   1
_chemical_formula_structural   TiRe3N4
_chemical_formula_sum   'Ti2 Re6 N8'
_cell_volume   183.88854870
_cell_formula_units_Z   2
loop_
 _symmetry_equiv_pos_site_id
 _symmetry_equiv_pos_as_xyz
  1  'x, y, z'
loop_
 _atom_site_type_symbol
 _atom_site_label
 _atom_site_symmetry_multiplicity
 _atom_site_fract_x
 _atom_site_fract_y
 _atom_site_fract_z
 _atom_site_occupancy
  Re  Re0  1  0.18923953  0.31076047  0.42243930  1
  Re  Re1  1  0.31302397  0.18697603  0.93216300  1
  Re  Re2  1  0.14689455  0.85310545  0.31946275  1
  Re  Re3  1  0.64689455  0.35310545  0.31946275  1
  Re  Re4  1  0.68923953  0.81076047  0.42243930  1
  Re  Re5  1  0.81302397  0.68697603  0.93216300  1
  N  N6  1  0.15137117  0.34862883  0.04761791  1
  N  N7  1  0.35109276  0.14890724  0.56162963  1
  N  N8  1  0.18919004  0.81080996  0.96130380  1
  N  N9  1  0.31485374  0.68514626  0.45394598  1
  N  N10  1  0.68919004  0.31080996  0.96130380  1
  N  N11  1  0.81485374  0.18514626  0.45394598  1
  N  N12  1  0.65137117  0.84862883  0.04761791  1
  N  N13  1  0.85109276  0.64890724  0.56162963  1
  Ti  Ti14  1  0.34433423  0.65566577  0.82943763  1
  Ti  Ti15  1  0.84433423  0.15566577  0.82943763  1
