# generated using pymatgen
data_TiOs3N4
_symmetry_space_group_name_H-M   'P 1'
_cell_length_a   6.44789038
_cell_length_b   6.44789038
_cell_length_c   5.45600159
_cell_angle_alpha   93.22000854
_cell_angle_beta   86.77999144
_cell_angle_gamma   126.74364161
_symmetry_Int_Tables_number   1
_chemical_formula_structural   TiOs3N4
_chemical_formula_sum   'Ti2 Os6 N8'
_cell_volume   181.40816606
_cell_formula_units_Z   2
loop_
 _symmetry_equiv_pos_site_id
 _symmetry_equiv_pos_as_xyz
  1  'x, y, z'
loop_
 _atom_site_type_symbol
 _atom_site_label
 _atom_site_symmetry_multiplicity
 _atom_site_fract_x
 _atom_site_fract_y
 _atom_site_fract_z
 _atom_site_occupancy
  Os  Os0  1  0.18789438  0.31210562  0.45655369  1
  Os  Os1  1  0.31458375  0.18541625  0.96862614  1
  Os  Os2  1  0.14109770  0.85890230  0.56766891  1
  Os  Os3  1  0.64109770  0.35890230  0.56766891  1
  Os  Os4  1  0.68789438  0.81210562  0.45655369  1
  Os  Os5  1  0.81458375  0.68541625  0.96862614  1
  N  N6  1  0.15375897  0.34624103  0.83282644  1
  N  N7  1  0.35048934  0.14951066  0.32304899  1
  N  N8  1  0.19139994  0.80860006  0.91262907  1
  N  N9  1  0.31142808  0.68857192  0.41314946  1
  N  N10  1  0.69139994  0.30860006  0.91262907  1
  N  N11  1  0.81142808  0.18857192  0.41314946  1
  N  N12  1  0.65375897  0.84624103  0.83282644  1
  N  N13  1  0.85048934  0.64951066  0.32304899  1
  Ti  Ti14  1  0.34934784  0.65065216  0.05349730  1
  Ti  Ti15  1  0.84934784  0.15065216  0.05349730  1
