# generated using pymatgen
data_AlFeCoNiAg
_symmetry_space_group_name_H-M   'P 1'
_cell_length_a   5.80150788
_cell_length_b   5.91804551
_cell_length_c   7.53940271
_cell_angle_alpha   90.59416130
_cell_angle_beta   89.87981842
_cell_angle_gamma   88.82836489
_symmetry_Int_Tables_number   1
_chemical_formula_structural   AlFeCoNiAg
_chemical_formula_sum   'Al4 Fe4 Co4 Ni4 Ag4'
_cell_volume   258.78601902
_cell_formula_units_Z   4
loop_
 _symmetry_equiv_pos_site_id
 _symmetry_equiv_pos_as_xyz
  1  'x, y, z'
loop_
 _atom_site_type_symbol
 _atom_site_label
 _atom_site_symmetry_multiplicity
 _atom_site_fract_x
 _atom_site_fract_y
 _atom_site_fract_z
 _atom_site_occupancy
  Al  Al0  1  0.09152957  0.27906347  0.73955609  1
  Al  Al1  1  0.19977647  0.59044857  0.01009406  1
  Al  Al2  1  0.30004650  0.89957911  0.26309323  1
  Al  Al3  1  0.43483790  0.18771550  0.99586853  1
  Co  Co4  1  0.36114446  0.88751954  0.75852717  1
  Co  Co5  1  0.48575525  0.49037286  0.78005336  1
  Co  Co6  1  0.61135204  0.80252717  0.49088504  1
  Co  Co7  1  0.87763017  0.69697394  0.24650923  1
  Ag  Ag8  1  0.00713114  0.00264331  0.99907962  1
  Ag  Ag9  1  0.20476191  0.61275928  0.50153809  1
  Ag  Ag10  1  0.39847449  0.19655793  0.50085814  1
  Ag  Ag11  1  0.88364953  0.70067146  0.74914463  1
  Fe  Fe12  1  0.70822399  0.08942595  0.24832433  1
  Fe  Fe13  1  0.79172862  0.40725896  0.47462198  1
  Fe  Fe14  1  0.57809014  0.78832879  0.01360300  1
  Fe  Fe15  1  0.78740883  0.42265181  0.01611287  1
  Ni  Ni16  1  0.97582263  0.01365694  0.48470550  1
  Ni  Ni17  1  0.09004726  0.30760482  0.24475218  1
  Ni  Ni18  1  0.70929501  0.12451346  0.73951281  1
  Ni  Ni19  1  0.50329403  0.49972720  0.24316018  1
