# generated using pymatgen
data_ZrMnFeCoNi
_symmetry_space_group_name_H-M   'P 1'
_cell_length_a   5.75897084
_cell_length_b   5.77930979
_cell_length_c   7.67247822
_cell_angle_alpha   89.39272123
_cell_angle_beta   88.89797087
_cell_angle_gamma   89.54670367
_symmetry_Int_Tables_number   1
_chemical_formula_structural   ZrMnFeCoNi
_chemical_formula_sum   'Zr4 Mn4 Fe4 Co4 Ni4'
_cell_volume   255.29298361
_cell_formula_units_Z   4
loop_
 _symmetry_equiv_pos_site_id
 _symmetry_equiv_pos_as_xyz
  1  'x, y, z'
loop_
 _atom_site_type_symbol
 _atom_site_label
 _atom_site_symmetry_multiplicity
 _atom_site_fract_x
 _atom_site_fract_y
 _atom_site_fract_z
 _atom_site_occupancy
  Zr  Zr0  1  0.06744102  0.27929490  0.72796713  1
  Zr  Zr1  1  0.19482366  0.64704624  0.98536543  1
  Zr  Zr2  1  0.30082231  0.89575470  0.29538018  1
  Zr  Zr3  1  0.43078062  0.18135582  0.00096874  1
  Co  Co4  1  0.29136811  0.88088372  0.70304379  1
  Co  Co5  1  0.53465946  0.49507814  0.74255942  1
  Co  Co6  1  0.60928582  0.78216895  0.51125972  1
  Co  Co7  1  0.86870045  0.70572770  0.25714314  1
  Mn  Mn8  1  0.94701192  0.02697190  0.00987680  1
  Mn  Mn9  1  0.20390538  0.57511528  0.51580755  1
  Mn  Mn10  1  0.43744750  0.23028234  0.50140872  1
  Mn  Mn11  1  0.88407392  0.72704182  0.73592423  1
  Fe  Fe12  1  0.73407907  0.09871253  0.26059070  1
  Fe  Fe13  1  0.78583932  0.40924468  0.48215077  1
  Fe  Fe14  1  0.64858077  0.77334110  0.99874313  1
  Fe  Fe15  1  0.81574643  0.40909079  0.02258022  1
  Ni  Ni16  1  0.96843341  0.98912276  0.49699620  1
  Ni  Ni17  1  0.10354135  0.32759449  0.26910283  1
  Ni  Ni18  1  0.66635613  0.07754593  0.73199487  1
  Ni  Ni19  1  0.50710334  0.48862622  0.25113643  1
