# generated using pymatgen
data_YMnFeCoNi
_symmetry_space_group_name_H-M   'P 1'
_cell_length_a   6.36016701
_cell_length_b   4.95014482
_cell_length_c   9.88144844
_cell_angle_alpha   96.75518927
_cell_angle_beta   76.40517316
_cell_angle_gamma   97.28622975
_symmetry_Int_Tables_number   1
_chemical_formula_structural   YMnFeCoNi
_chemical_formula_sum   'Y4 Mn4 Fe4 Co4 Ni4'
_cell_volume   298.69996731
_cell_formula_units_Z   4
loop_
 _symmetry_equiv_pos_site_id
 _symmetry_equiv_pos_as_xyz
  1  'x, y, z'
loop_
 _atom_site_type_symbol
 _atom_site_label
 _atom_site_symmetry_multiplicity
 _atom_site_fract_x
 _atom_site_fract_y
 _atom_site_fract_z
 _atom_site_occupancy
  Y  Y0  1  0.03283051  0.24094570  0.75824525  1
  Y  Y1  1  0.16266639  0.79030998  0.95358866  1
  Y  Y2  1  0.36462343  0.87515127  0.25468628  1
  Y  Y3  1  0.52392948  0.34639615  0.97634256  1
  Co  Co4  1  0.25258779  0.72621309  0.62621428  1
  Co  Co5  1  0.49148451  0.51445436  0.72267223  1
  Co  Co6  1  0.63908149  0.75214996  0.50597285  1
  Co  Co7  1  0.89211392  0.56966023  0.31776758  1
  Mn  Mn8  1  0.86288220  0.24400646  0.10623445  1
  Mn  Mn9  1  0.13792781  0.44175645  0.44506687  1
  Mn  Mn10  1  0.41194894  0.17637066  0.52499581  1
  Mn  Mn11  1  0.85181601  0.70541974  0.68901852  1
  Fe  Fe12  1  0.84195228  0.05324881  0.31599148  1
  Fe  Fe13  1  0.76550500  0.29063403  0.54751394  1
  Fe  Fe14  1  0.70635494  0.85313166  0.92030126  1
  Fe  Fe15  1  0.77712303  0.73853388  0.12294885  1
  Ni  Ni16  1  0.03243695  0.94465308  0.49043632  1
  Ni  Ni17  1  0.18648821  0.31483817  0.19055909  1
  Ni  Ni18  1  0.53293566  0.01581590  0.73196464  1
  Ni  Ni19  1  0.53331144  0.40631049  0.29947905  1
