# generated using pymatgen
data_MnFeCoNiOs
_symmetry_space_group_name_H-M   'P 1'
_cell_length_a   5.61705480
_cell_length_b   5.65472400
_cell_length_c   7.16574580
_cell_angle_alpha   90.10001247
_cell_angle_beta   89.78900285
_cell_angle_gamma   89.85899389
_symmetry_Int_Tables_number   1
_chemical_formula_structural   MnFeCoNiOs
_chemical_formula_sum   'Mn4 Fe4 Co4 Ni4 Os4'
_cell_volume   227.60224570
_cell_formula_units_Z   4
loop_
 _symmetry_equiv_pos_site_id
 _symmetry_equiv_pos_as_xyz
  1  'x, y, z'
loop_
 _atom_site_type_symbol
 _atom_site_label
 _atom_site_symmetry_multiplicity
 _atom_site_fract_x
 _atom_site_fract_y
 _atom_site_fract_z
 _atom_site_occupancy
  Os  Os0  1  0.09099396  0.29803234  0.74012922  1
  Os  Os1  1  0.19332006  0.60679669  0.99667374  1
  Os  Os2  1  0.30246458  0.90537525  0.26131681  1
  Os  Os3  1  0.41248092  0.19359595  0.99980205  1
  Co  Co4  1  0.30306581  0.89294426  0.74631140  1
  Co  Co5  1  0.50617603  0.50798149  0.74947093  1
  Co  Co6  1  0.60081282  0.79062610  0.50315314  1
  Co  Co7  1  0.89368806  0.69779341  0.25072156  1
  Mn  Mn8  1  0.99075909  0.00213787  0.00167822  1
  Mn  Mn9  1  0.20884111  0.59690325  0.50453775  1
  Mn  Mn10  1  0.40706754  0.21528483  0.49846175  1
  Mn  Mn11  1  0.90124781  0.70197526  0.74864364  1
  Fe  Fe12  1  0.70719415  0.09709016  0.25028393  1
  Fe  Fe13  1  0.78808876  0.39961811  0.49804352  1
  Fe  Fe14  1  0.60702729  0.79643665  0.99708646  1
  Fe  Fe15  1  0.79773785  0.40140324  0.00328178  1
  Ni  Ni16  1  0.99379859  0.99389165  0.49980612  1
  Ni  Ni17  1  0.09431720  0.30557119  0.25484813  1
  Ni  Ni18  1  0.69593925  0.09653371  0.74474194  1
  Ni  Ni19  1  0.50497909  0.50000861  0.25100790  1
