# generated using pymatgen
data_CrFeCoReNi
_symmetry_space_group_name_H-M   'P 1'
_cell_length_a   5.73610731
_cell_length_b   5.65853032
_cell_length_c   7.15803691
_cell_angle_alpha   89.81090484
_cell_angle_beta   90.26726431
_cell_angle_gamma   90.34994239
_symmetry_Int_Tables_number   1
_chemical_formula_structural   CrFeCoReNi
_chemical_formula_sum   'Cr4 Fe4 Co4 Re4 Ni4'
_cell_volume   232.32700740
_cell_formula_units_Z   4
loop_
 _symmetry_equiv_pos_site_id
 _symmetry_equiv_pos_as_xyz
  1  'x, y, z'
loop_
 _atom_site_type_symbol
 _atom_site_label
 _atom_site_symmetry_multiplicity
 _atom_site_fract_x
 _atom_site_fract_y
 _atom_site_fract_z
 _atom_site_occupancy
  Co  Co0  1  0.20834662  0.59873391  0.50139981  1
  Co  Co1  1  0.29340493  0.89813974  0.74534630  1
  Co  Co2  1  0.19154359  0.60039669  0.99545920  1
  Co  Co3  1  0.29779024  0.90039102  0.25931112  1
  Cr  Cr4  1  0.38071084  0.20329292  0.50238226  1
  Cr  Cr5  1  0.49257811  0.50475969  0.26423497  1
  Cr  Cr6  1  0.60044270  0.78415716  0.49529594  1
  Cr  Cr7  1  0.81437627  0.40660356  0.49528337  1
  Fe  Fe8  1  0.11439143  0.30685573  0.74274822  1
  Fe  Fe9  1  0.49750941  0.51161098  0.74283147  1
  Fe  Fe10  1  0.80627507  0.40044384  0.00135471  1
  Fe  Fe11  1  0.90697248  0.69228207  0.25708643  1
  Ni  Ni12  1  0.99999411  0.99591643  0.49505543  1
  Ni  Ni13  1  0.09444874  0.30736852  0.25227186  1
  Ni  Ni14  1  0.70154929  0.09805231  0.25830031  1
  Ni  Ni15  1  0.90100364  0.68864178  0.74764876  1
  Re  Re16  1  0.00222972  0.99944771  0.00483987  1
  Re  Re17  1  0.70141385  0.10446696  0.73343619  1
  Re  Re18  1  0.40712336  0.21498068  0.00243105  1
  Re  Re19  1  0.58789561  0.78345829  0.00328271  1
