# generated using pymatgen
data_MnFeCoNiPt
_symmetry_space_group_name_H-M   'P 1'
_cell_length_a   5.69223426
_cell_length_b   5.67735195
_cell_length_c   7.22009652
_cell_angle_alpha   90.08617209
_cell_angle_beta   89.94714090
_cell_angle_gamma   89.88068676
_symmetry_Int_Tables_number   1
_chemical_formula_structural   MnFeCoNiPt
_chemical_formula_sum   'Mn4 Fe4 Co4 Ni4 Pt4'
_cell_volume   233.32967014
_cell_formula_units_Z   4
loop_
 _symmetry_equiv_pos_site_id
 _symmetry_equiv_pos_as_xyz
  1  'x, y, z'
loop_
 _atom_site_type_symbol
 _atom_site_label
 _atom_site_symmetry_multiplicity
 _atom_site_fract_x
 _atom_site_fract_y
 _atom_site_fract_z
 _atom_site_occupancy
  Pt  Pt0  1  0.08600848  0.29602446  0.74097912  1
  Pt  Pt1  1  0.19438550  0.61441990  0.99575611  1
  Pt  Pt2  1  0.29976569  0.90503170  0.26706729  1
  Pt  Pt3  1  0.41372017  0.19300340  0.99618190  1
  Co  Co4  1  0.30516465  0.89135521  0.73187307  1
  Co  Co5  1  0.51541466  0.51029351  0.74614480  1
  Co  Co6  1  0.60748439  0.78207932  0.50275473  1
  Co  Co7  1  0.89003796  0.69848764  0.25671061  1
  Mn  Mn8  1  0.97076995  0.00034579  0.00530972  1
  Mn  Mn9  1  0.22087332  0.59398588  0.50329351  1
  Mn  Mn10  1  0.40778521  0.22411785  0.50045849  1
  Mn  Mn11  1  0.88765200  0.70475176  0.74909494  1
  Fe  Fe12  1  0.71040180  0.09842203  0.25273906  1
  Fe  Fe13  1  0.78199826  0.39663509  0.49587896  1
  Fe  Fe14  1  0.62773562  0.79675738  0.99854538  1
  Fe  Fe15  1  0.79991354  0.40657390  0.00530281  1
  Ni  Ni16  1  0.98589940  0.99260598  0.50094598  1
  Ni  Ni17  1  0.09023301  0.30671742  0.25913419  1
  Ni  Ni18  1  0.69402350  0.09023025  0.73925995  1
  Ni  Ni19  1  0.51073291  0.49816152  0.25256938  1
