# generated using pymatgen
data_MnCrFeCoNi
_symmetry_space_group_name_H-M   'P 1'
_cell_length_a   5.52791037
_cell_length_b   5.49606460
_cell_length_c   7.04597157
_cell_angle_alpha   89.92480547
_cell_angle_beta   89.95440267
_cell_angle_gamma   90.27008654
_symmetry_Int_Tables_number   1
_chemical_formula_structural   MnCrFeCoNi
_chemical_formula_sum   'Mn4 Cr4 Fe4 Co4 Ni4'
_cell_volume   214.06633300
_cell_formula_units_Z   4
loop_
 _symmetry_equiv_pos_site_id
 _symmetry_equiv_pos_as_xyz
  1  'x, y, z'
loop_
 _atom_site_type_symbol
 _atom_site_label
 _atom_site_symmetry_multiplicity
 _atom_site_fract_x
 _atom_site_fract_y
 _atom_site_fract_z
 _atom_site_occupancy
  Cr  Cr0  1  0.09343190  0.29646761  0.74416487  1
  Cr  Cr1  1  0.19954515  0.61278363  0.00114296  1
  Cr  Cr2  1  0.29715284  0.89794075  0.25798922  1
  Cr  Cr3  1  0.41531445  0.18831543  0.00340280  1
  Co  Co4  1  0.29895235  0.89480624  0.74516136  1
  Co  Co5  1  0.50070409  0.49957777  0.75098969  1
  Co  Co6  1  0.59708053  0.79749062  0.50032661  1
  Co  Co7  1  0.89745526  0.70307357  0.24863160  1
  Mn  Mn8  1  0.99166569  0.00392189  0.99697776  1
  Mn  Mn9  1  0.20561793  0.59504242  0.50695453  1
  Mn  Mn10  1  0.40316940  0.20703712  0.49813490  1
  Mn  Mn11  1  0.90031902  0.70248067  0.75062598  1
  Fe  Fe12  1  0.69853568  0.09305586  0.24941374  1
  Fe  Fe13  1  0.79804545  0.40406149  0.50290098  1
  Fe  Fe14  1  0.59900797  0.79721261  0.99568481  1
  Fe  Fe15  1  0.80813101  0.40607299  0.00054037  1
  Ni  Ni16  1  0.99904863  0.99962178  0.50031302  1
  Ni  Ni17  1  0.09835348  0.30408483  0.25091284  1
  Ni  Ni18  1  0.69475759  0.09972518  0.74697486  1
  Ni  Ni19  1  0.50371156  0.49722753  0.24875709  1
