# generated using pymatgen
data_MnFeCoCuNi
_symmetry_space_group_name_H-M   'P 1'
_cell_length_a   5.54084853
_cell_length_b   5.53009012
_cell_length_c   7.04927885
_cell_angle_alpha   90.29066653
_cell_angle_beta   89.76045398
_cell_angle_gamma   89.72559249
_symmetry_Int_Tables_number   1
_chemical_formula_structural   MnFeCoCuNi
_chemical_formula_sum   'Mn4 Fe4 Co4 Cu4 Ni4'
_cell_volume   215.99254811
_cell_formula_units_Z   4
loop_
 _symmetry_equiv_pos_site_id
 _symmetry_equiv_pos_as_xyz
  1  'x, y, z'
loop_
 _atom_site_type_symbol
 _atom_site_label
 _atom_site_symmetry_multiplicity
 _atom_site_fract_x
 _atom_site_fract_y
 _atom_site_fract_z
 _atom_site_occupancy
  Cu  Cu0  1  0.09640487  0.29609222  0.75329368  1
  Cu  Cu1  1  0.20193921  0.60130949  0.99980705  1
  Cu  Cu2  1  0.29858229  0.89827983  0.25013861  1
  Cu  Cu3  1  0.40051707  0.19465172  0.00148950  1
  Co  Co4  1  0.29869269  0.89179106  0.74458782  1
  Co  Co5  1  0.51394285  0.50610495  0.74180654  1
  Co  Co6  1  0.60292531  0.79650638  0.50018752  1
  Co  Co7  1  0.88981583  0.70338764  0.25163618  1
  Mn  Mn8  1  0.97185037  0.99884835  0.99734810  1
  Mn  Mn9  1  0.20586881  0.58925042  0.51037270  1
  Mn  Mn10  1  0.40435931  0.21359603  0.50132776  1
  Mn  Mn11  1  0.89280034  0.70878256  0.74371177  1
  Fe  Fe12  1  0.70693218  0.09866687  0.26094942  1
  Fe  Fe13  1  0.79756786  0.40930244  0.49562831  1
  Fe  Fe14  1  0.62379203  0.79282741  0.99338620  1
  Fe  Fe15  1  0.79790026  0.39724947  0.00492985  1
  Ni  Ni16  1  0.00126826  0.00185682  0.49914768  1
  Ni  Ni17  1  0.09598922  0.30293679  0.25417944  1
  Ni  Ni18  1  0.69178267  0.09914455  0.74480794  1
  Ni  Ni19  1  0.50706858  0.49941501  0.25126389  1
