# generated using pymatgen
data_ScMnFeCoNi
_symmetry_space_group_name_H-M   'P 1'
_cell_length_a   5.81662901
_cell_length_b   5.76955682
_cell_length_c   7.52021588
_cell_angle_alpha   89.71351963
_cell_angle_beta   88.89180543
_cell_angle_gamma   89.87378786
_symmetry_Int_Tables_number   1
_chemical_formula_structural   ScMnFeCoNi
_chemical_formula_sum   'Sc4 Mn4 Fe4 Co4 Ni4'
_cell_volume   252.32279992
_cell_formula_units_Z   4
loop_
 _symmetry_equiv_pos_site_id
 _symmetry_equiv_pos_as_xyz
  1  'x, y, z'
loop_
 _atom_site_type_symbol
 _atom_site_label
 _atom_site_symmetry_multiplicity
 _atom_site_fract_x
 _atom_site_fract_y
 _atom_site_fract_z
 _atom_site_occupancy
  Sc  Sc0  1  0.06232258  0.27351193  0.73742482  1
  Sc  Sc1  1  0.19527034  0.63602792  0.98857591  1
  Sc  Sc2  1  0.29964832  0.90553965  0.28825808  1
  Sc  Sc3  1  0.43416437  0.18349594  0.99452291  1
  Co  Co4  1  0.29768945  0.88337934  0.70591769  1
  Co  Co5  1  0.53643581  0.49898609  0.73992938  1
  Co  Co6  1  0.61414425  0.78868071  0.50701216  1
  Co  Co7  1  0.86612920  0.70711659  0.25565811  1
  Mn  Mn8  1  0.94389789  0.02252306  0.01457581  1
  Mn  Mn9  1  0.20635692  0.57264419  0.51426335  1
  Mn  Mn10  1  0.42376278  0.23420785  0.50995869  1
  Mn  Mn11  1  0.88722894  0.72489196  0.73344303  1
  Fe  Fe12  1  0.73044739  0.10208131  0.26702329  1
  Fe  Fe13  1  0.78875597  0.40610950  0.48144562  1
  Fe  Fe14  1  0.64345574  0.76806947  0.99522066  1
  Fe  Fe15  1  0.81050515  0.40839981  0.02265846  1
  Ni  Ni16  1  0.97920416  0.99182252  0.49634361  1
  Ni  Ni17  1  0.10044243  0.32363798  0.26219986  1
  Ni  Ni18  1  0.67438627  0.08182799  0.73095931  1
  Ni  Ni19  1  0.50575204  0.48704622  0.25460920  1
