# generated using pymatgen
data_YAlFeCoNi
_symmetry_space_group_name_H-M   'P 1'
_cell_length_a   6.47578124
_cell_length_b   5.20038707
_cell_length_c   9.55547743
_cell_angle_alpha   100.63298380
_cell_angle_beta   103.25876444
_cell_angle_gamma   93.79668585
_symmetry_Int_Tables_number   1
_chemical_formula_structural   YAlFeCoNi
_chemical_formula_sum   'Y4 Al4 Fe4 Co4 Ni4'
_cell_volume   305.85209699
_cell_formula_units_Z   4
loop_
 _symmetry_equiv_pos_site_id
 _symmetry_equiv_pos_as_xyz
  1  'x, y, z'
loop_
 _atom_site_type_symbol
 _atom_site_label
 _atom_site_symmetry_multiplicity
 _atom_site_fract_x
 _atom_site_fract_y
 _atom_site_fract_z
 _atom_site_occupancy
  Y  Y0  1  0.51200071  0.54009582  0.04396578  1
  Y  Y1  1  0.31280311  0.04888477  0.21829538  1
  Y  Y2  1  0.98086204  0.38096219  0.96733075  1
  Y  Y3  1  0.16630806  0.87501938  0.79614602  1
  Al  Al4  1  0.85323505  0.21617107  0.22635788  1
  Al  Al5  1  0.09510851  0.54963266  0.48373821  1
  Al  Al6  1  0.85588079  0.34635659  0.62929608  1
  Al  Al7  1  0.56411256  0.14294844  0.73631166  1
  Co  Co8  1  0.80061807  0.82289731  0.59907361  1
  Co  Co9  1  0.42490744  0.84002475  0.50305906  1
  Co  Co10  1  0.24426864  0.54760950  0.27063971  1
  Co  Co11  1  0.89259998  0.86342368  0.01811863  1
  Fe  Fe12  1  0.92527338  0.73902996  0.25580793  1
  Fe  Fe13  1  0.64943091  0.54984026  0.36853308  1
  Fe  Fe14  1  0.65111057  0.67311252  0.77732939  1
  Fe  Fe15  1  0.09916292  0.03892426  0.48890902  1
  Ni  Ni16  1  0.57412993  0.03726376  0.97472787  1
  Ni  Ni17  1  0.69870714  0.05012819  0.39913355  1
  Ni  Ni18  1  0.44715570  0.35588884  0.51964438  1
  Ni  Ni19  1  0.25232450  0.38178608  0.72358201  1
