# generated using pymatgen
data_AlFeCoNiW
_symmetry_space_group_name_H-M   'P 1'
_cell_length_a   5.06961996
_cell_length_b   5.09490300
_cell_length_c   9.93030704
_cell_angle_alpha   98.83766739
_cell_angle_beta   98.76904204
_cell_angle_gamma   83.05915253
_symmetry_Int_Tables_number   1
_chemical_formula_structural   AlFeCoNiW
_chemical_formula_sum   'Al4 Fe4 Co4 Ni4 W4'
_cell_volume   249.23484489
_cell_formula_units_Z   4
loop_
 _symmetry_equiv_pos_site_id
 _symmetry_equiv_pos_as_xyz
  1  'x, y, z'
loop_
 _atom_site_type_symbol
 _atom_site_label
 _atom_site_symmetry_multiplicity
 _atom_site_fract_x
 _atom_site_fract_y
 _atom_site_fract_z
 _atom_site_occupancy
  W  W0  1  0.45224093  0.49912579  0.00098222  1
  W  W1  1  0.30582670  0.85440751  0.20946616  1
  W  W2  1  0.95107798  0.52193206  0.00087401  1
  W  W3  1  0.21666353  0.73989765  0.78535227  1
  Al  Al4  1  0.79242150  0.25167219  0.20669557  1
  Al  Al5  1  0.12489875  0.58755989  0.41332947  1
  Al  Al6  1  0.88397332  0.39231007  0.59423648  1
  Al  Al7  1  0.68124382  0.15833819  0.79144664  1
  Co  Co8  1  0.89367554  0.89387553  0.58919160  1
  Co  Co9  1  0.40582745  0.89285121  0.59077273  1
  Co  Co10  1  0.27231362  0.33010540  0.20566603  1
  Co  Co11  1  0.05157292  0.01644475  0.98917650  1
  Fe  Fe12  1  0.81498121  0.75928189  0.22330036  1
  Fe  Fe13  1  0.60629262  0.61739310  0.40097558  1
  Fe  Fe14  1  0.71432988  0.67136785  0.79035502  1
  Fe  Fe15  1  0.10520453  0.08768219  0.41413027  1
  Ni  Ni16  1  0.56284966  0.98658168  0.00370155  1
  Ni  Ni17  1  0.59692214  0.11883195  0.40103230  1
  Ni  Ni18  1  0.40048002  0.38927209  0.60167498  1
  Ni  Ni19  1  0.16720387  0.23106901  0.78764025  1
