# generated using pymatgen
data_TaAlFeCoNi
_symmetry_space_group_name_H-M   'P 1'
_cell_length_a   5.40263722
_cell_length_b   5.96913765
_cell_length_c   8.30592570
_cell_angle_alpha   99.12124539
_cell_angle_beta   99.86480432
_cell_angle_gamma   88.30759438
_symmetry_Int_Tables_number   1
_chemical_formula_structural   TaAlFeCoNi
_chemical_formula_sum   'Ta4 Al4 Fe4 Co4 Ni4'
_cell_volume   260.56040770
_cell_formula_units_Z   4
loop_
 _symmetry_equiv_pos_site_id
 _symmetry_equiv_pos_as_xyz
  1  'x, y, z'
loop_
 _atom_site_type_symbol
 _atom_site_label
 _atom_site_symmetry_multiplicity
 _atom_site_fract_x
 _atom_site_fract_y
 _atom_site_fract_z
 _atom_site_occupancy
  Ta  Ta0  1  0.50520333  0.48240232  0.99784756  1
  Ta  Ta1  1  0.30304441  0.86739757  0.21478632  1
  Ta  Ta2  1  0.00487415  0.48159547  0.00154939  1
  Ta  Ta3  1  0.20178520  0.76299975  0.79175526  1
  Al  Al4  1  0.80649778  0.23567530  0.21908119  1
  Al  Al5  1  0.10937604  0.57367922  0.39269478  1
  Al  Al6  1  0.87675264  0.43093055  0.61754983  1
  Al  Al7  1  0.67165500  0.13055792  0.75717263  1
  Co  Co8  1  0.88402583  0.85363694  0.55982360  1
  Co  Co9  1  0.40598379  0.85137866  0.55871605  1
  Co  Co10  1  0.30581785  0.29438497  0.21199169  1
  Co  Co11  1  0.99057865  0.01925299  0.99388435  1
  Fe  Fe12  1  0.80082321  0.80968508  0.21162977  1
  Fe  Fe13  1  0.59950370  0.57843116  0.37525482  1
  Fe  Fe14  1  0.70894256  0.72711000  0.81994636  1
  Fe  Fe15  1  0.11875709  0.11851418  0.44741483  1
  Ni  Ni16  1  0.50249133  0.02682949  0.99875766  1
  Ni  Ni17  1  0.61136863  0.13590278  0.43689661  1
  Ni  Ni18  1  0.40877225  0.43263588  0.62290527  1
  Ni  Ni19  1  0.18374656  0.18699977  0.77034203  1
