# generated using pymatgen
data_NbAlFeCoNi
_symmetry_space_group_name_H-M   'P 1'
_cell_length_a   5.25951879
_cell_length_b   6.08254794
_cell_length_c   8.33659979
_cell_angle_alpha   98.80372144
_cell_angle_beta   99.63089777
_cell_angle_gamma   88.24273354
_symmetry_Int_Tables_number   1
_chemical_formula_structural   NbAlFeCoNi
_chemical_formula_sum   'Nb4 Al4 Fe4 Co4 Ni4'
_cell_volume   259.83825736
_cell_formula_units_Z   4
loop_
 _symmetry_equiv_pos_site_id
 _symmetry_equiv_pos_as_xyz
  1  'x, y, z'
loop_
 _atom_site_type_symbol
 _atom_site_label
 _atom_site_symmetry_multiplicity
 _atom_site_fract_x
 _atom_site_fract_y
 _atom_site_fract_z
 _atom_site_occupancy
  Nb  Nb0  1  0.50273572  0.48348928  0.99923266  1
  Nb  Nb1  1  0.30074273  0.87228522  0.21966710  1
  Nb  Nb2  1  0.99999980  0.48526884  0.00158057  1
  Nb  Nb3  1  0.20300987  0.76799707  0.78960240  1
  Al  Al4  1  0.80892826  0.23001318  0.21703618  1
  Al  Al5  1  0.10943198  0.56636099  0.38858597  1
  Al  Al6  1  0.87998584  0.43609569  0.62174211  1
  Al  Al7  1  0.67033852  0.13066326  0.75532876  1
  Co  Co8  1  0.88271709  0.84903009  0.55474303  1
  Co  Co9  1  0.40634352  0.84702553  0.55460391  1
  Co  Co10  1  0.30618780  0.28393342  0.21172007  1
  Co  Co11  1  0.99334681  0.01690457  0.99280897  1
  Fe  Fe12  1  0.79919232  0.81413746  0.21742498  1
  Fe  Fe13  1  0.60106061  0.57007684  0.37235122  1
  Fe  Fe14  1  0.70995131  0.73440967  0.81627097  1
  Fe  Fe15  1  0.12147365  0.12478355  0.45272682  1
  Ni  Ni16  1  0.50224129  0.02565746  0.99840431  1
  Ni  Ni17  1  0.61527894  0.14149992  0.44177340  1
  Ni  Ni18  1  0.40623054  0.43729394  0.62554781  1
  Ni  Ni19  1  0.18080339  0.18307403  0.76884877  1
