# generated using pymatgen
data_HfAlFeCoNi
_symmetry_space_group_name_H-M   'P 1'
_cell_length_a   5.22116987
_cell_length_b   6.41250852
_cell_length_c   8.49151737
_cell_angle_alpha   92.25221961
_cell_angle_beta   104.02064708
_cell_angle_gamma   87.18953579
_symmetry_Int_Tables_number   1
_chemical_formula_structural   HfAlFeCoNi
_chemical_formula_sum   'Hf4 Al4 Fe4 Co4 Ni4'
_cell_volume   275.39087167
_cell_formula_units_Z   4
loop_
 _symmetry_equiv_pos_site_id
 _symmetry_equiv_pos_as_xyz
  1  'x, y, z'
loop_
 _atom_site_type_symbol
 _atom_site_label
 _atom_site_symmetry_multiplicity
 _atom_site_fract_x
 _atom_site_fract_y
 _atom_site_fract_z
 _atom_site_occupancy
  Hf  Hf0  1  0.49765561  0.44470061  0.98354716  1
  Hf  Hf1  1  0.32380255  0.87806013  0.25073452  1
  Hf  Hf2  1  0.01003693  0.49147244  0.01972221  1
  Hf  Hf3  1  0.14202545  0.83995331  0.75773009  1
  Al  Al4  1  0.83019435  0.17039466  0.23952963  1
  Al  Al5  1  0.13763853  0.52237781  0.38643427  1
  Al  Al6  1  0.83564683  0.49233072  0.62234781  1
  Al  Al7  1  0.62858440  0.12696558  0.75518477  1
  Co  Co8  1  0.90121834  0.83950798  0.43652907  1
  Co  Co9  1  0.50604436  0.80996937  0.56180296  1
  Co  Co10  1  0.31621415  0.25815640  0.22887670  1
  Co  Co11  1  0.96762505  0.03610419  0.99882048  1
  Fe  Fe12  1  0.78440110  0.77895352  0.15550941  1
  Fe  Fe13  1  0.61454225  0.52644230  0.32126078  1
  Fe  Fe14  1  0.67934006  0.75247350  0.84438153  1
  Fe  Fe15  1  0.18941069  0.13137109  0.50922524  1
  Ni  Ni16  1  0.46148353  0.03299806  0.00028494  1
  Ni  Ni17  1  0.66046524  0.16621085  0.48391642  1
  Ni  Ni18  1  0.38787369  0.46703682  0.66107037  1
  Ni  Ni19  1  0.12579690  0.23452068  0.78309166  1
