# generated using pymatgen
data_AlZnFeCoNi
_symmetry_space_group_name_H-M   'P 1'
_cell_length_a   5.11493309
_cell_length_b   5.12576038
_cell_length_c   9.40811605
_cell_angle_alpha   98.26883962
_cell_angle_beta   98.38482202
_cell_angle_gamma   88.27245691
_symmetry_Int_Tables_number   1
_chemical_formula_structural   AlZnFeCoNi
_chemical_formula_sum   'Al4 Zn4 Fe4 Co4 Ni4'
_cell_volume   241.47723547
_cell_formula_units_Z   4
loop_
 _symmetry_equiv_pos_site_id
 _symmetry_equiv_pos_as_xyz
  1  'x, y, z'
loop_
 _atom_site_type_symbol
 _atom_site_label
 _atom_site_symmetry_multiplicity
 _atom_site_fract_x
 _atom_site_fract_y
 _atom_site_fract_z
 _atom_site_occupancy
  Zn  Zn0  1  0.49160108  0.50213871  0.99877312  1
  Zn  Zn1  1  0.30496868  0.82759983  0.19920520  1
  Zn  Zn2  1  0.00033961  0.49251538  0.99969720  1
  Zn  Zn3  1  0.20933289  0.72556888  0.79379860  1
  Al  Al4  1  0.79008373  0.27319561  0.20122368  1
  Al  Al5  1  0.11724102  0.60266511  0.40578489  1
  Al  Al6  1  0.89819804  0.38354094  0.59968240  1
  Al  Al7  1  0.68387793  0.17356995  0.79825553  1
  Co  Co8  1  0.89813052  0.88795343  0.59354630  1
  Co  Co9  1  0.40555026  0.90387784  0.59172809  1
  Co  Co10  1  0.29303238  0.32105541  0.20847307  1
  Co  Co11  1  0.99146229  0.99462565  0.99627789  1
  Fe  Fe12  1  0.80329242  0.78642526  0.20084157  1
  Fe  Fe13  1  0.60870001  0.61204084  0.40769093  1
  Fe  Fe14  1  0.70824308  0.69188699  0.79649125  1
  Fe  Fe15  1  0.10635832  0.10038793  0.40649430  1
  Ni  Ni16  1  0.49531586  0.00503238  0.00052502  1
  Ni  Ni17  1  0.60106328  0.10333619  0.40275550  1
  Ni  Ni18  1  0.40592065  0.39876347  0.60164529  1
  Ni  Ni19  1  0.18728797  0.21382021  0.79711014  1
