# generated using pymatgen
data_AlVFeCoNi
_symmetry_space_group_name_H-M   'P 1'
_cell_length_a   4.94864497
_cell_length_b   4.99885884
_cell_length_c   10.04851430
_cell_angle_alpha   99.14241484
_cell_angle_beta   99.37373465
_cell_angle_gamma   74.94647994
_symmetry_Int_Tables_number   1
_chemical_formula_structural   AlVFeCoNi
_chemical_formula_sum   'Al4 V4 Fe4 Co4 Ni4'
_cell_volume   235.06054396
_cell_formula_units_Z   4
loop_
 _symmetry_equiv_pos_site_id
 _symmetry_equiv_pos_as_xyz
  1  'x, y, z'
loop_
 _atom_site_type_symbol
 _atom_site_label
 _atom_site_symmetry_multiplicity
 _atom_site_fract_x
 _atom_site_fract_y
 _atom_site_fract_z
 _atom_site_occupancy
  V  V0  1  0.46368069  0.49781503  0.00002315  1
  V  V1  1  0.31718238  0.83213527  0.20727911  1
  V  V2  1  0.95821333  0.52256511  0.00270666  1
  V  V3  1  0.21071226  0.72924339  0.79620500  1
  Al  Al4  1  0.79198599  0.27625844  0.20425252  1
  Al  Al5  1  0.11481222  0.58456347  0.40289576  1
  Al  Al6  1  0.89475957  0.38633250  0.59690243  1
  Al  Al7  1  0.69201866  0.17617536  0.79354395  1
  Co  Co8  1  0.91977581  0.88202057  0.59805410  1
  Co  Co9  1  0.41909178  0.89539133  0.59307733  1
  Co  Co10  1  0.27724991  0.32374561  0.19553936  1
  Co  Co11  1  0.00757174  0.99817029  0.99742508  1
  Fe  Fe12  1  0.81765791  0.77680518  0.20256266  1
  Fe  Fe13  1  0.60101242  0.61636230  0.40142094  1
  Fe  Fe14  1  0.70587505  0.68383182  0.79748622  1
  Fe  Fe15  1  0.11847390  0.07875603  0.40364320  1
  Ni  Ni16  1  0.50758293  0.99461566  0.00107819  1
  Ni  Ni17  1  0.60627750  0.11535993  0.39999129  1
  Ni  Ni18  1  0.39444995  0.40080579  0.60287413  1
  Ni  Ni19  1  0.18161599  0.22904693  0.80303894  1
