# generated using pymatgen
data_TiAlFeCoNi
_symmetry_space_group_name_H-M   'P 1'
_cell_length_a   6.21099278
_cell_length_b   5.15084611
_cell_length_c   8.16998670
_cell_angle_alpha   99.17025949
_cell_angle_beta   104.86218458
_cell_angle_gamma   87.40808680
_symmetry_Int_Tables_number   1
_chemical_formula_structural   TiAlFeCoNi
_chemical_formula_sum   'Ti4 Al4 Fe4 Co4 Ni4'
_cell_volume   249.39764222
_cell_formula_units_Z   4
loop_
 _symmetry_equiv_pos_site_id
 _symmetry_equiv_pos_as_xyz
  1  'x, y, z'
loop_
 _atom_site_type_symbol
 _atom_site_label
 _atom_site_symmetry_multiplicity
 _atom_site_fract_x
 _atom_site_fract_y
 _atom_site_fract_z
 _atom_site_occupancy
  Ti  Ti0  1  0.51487582  0.47646665  0.95878083  1
  Ti  Ti1  1  0.35711147  0.85729602  0.18785300  1
  Ti  Ti2  1  0.96863358  0.51515098  0.03955968  1
  Ti  Ti3  1  0.14668864  0.76835708  0.80702845  1
  Al  Al4  1  0.74489382  0.26342738  0.23141126  1
  Al  Al5  1  0.16158872  0.58815506  0.38696508  1
  Al  Al6  1  0.93634011  0.36995546  0.56868234  1
  Al  Al7  1  0.73640434  0.13842073  0.75871407  1
  Co  Co8  1  0.92878975  0.88029420  0.55201775  1
  Co  Co9  1  0.37096560  0.91409631  0.62883633  1
  Co  Co10  1  0.32455418  0.32520441  0.16295026  1
  Co  Co11  1  0.96632859  0.00525667  0.03734963  1
  Fe  Fe12  1  0.77858774  0.77045619  0.23977745  1
  Fe  Fe13  1  0.58377436  0.62635273  0.43187129  1
  Fe  Fe14  1  0.71688867  0.65777070  0.76050862  1
  Fe  Fe15  1  0.13068235  0.08343749  0.36942909  1
  Ni  Ni16  1  0.54110027  0.97595784  0.96180991  1
  Ni  Ni17  1  0.56740570  0.14120734  0.44310660  1
  Ni  Ni18  1  0.36385137  0.40631899  0.63683425  1
  Ni  Ni19  1  0.16053491  0.23641779  0.83651411  1
