# generated using pymatgen
data_AlFeCoTcNi
_symmetry_space_group_name_H-M   'P 1'
_cell_length_a   5.17358161
_cell_length_b   5.24719179
_cell_length_c   9.19105573
_cell_angle_alpha   98.42772563
_cell_angle_beta   98.55288830
_cell_angle_gamma   88.70635067
_symmetry_Int_Tables_number   1
_chemical_formula_structural   AlFeCoTcNi
_chemical_formula_sum   'Al4 Fe4 Co4 Tc4 Ni4'
_cell_volume   244.06833446
_cell_formula_units_Z   4
loop_
 _symmetry_equiv_pos_site_id
 _symmetry_equiv_pos_as_xyz
  1  'x, y, z'
loop_
 _atom_site_type_symbol
 _atom_site_label
 _atom_site_symmetry_multiplicity
 _atom_site_fract_x
 _atom_site_fract_y
 _atom_site_fract_z
 _atom_site_occupancy
  Tc  Tc0  1  0.50224187  0.51491774  0.00082531  1
  Tc  Tc1  1  0.30194896  0.82719109  0.19568179  1
  Tc  Tc2  1  0.99523803  0.51066459  0.00243789  1
  Tc  Tc3  1  0.19902991  0.72583920  0.80323514  1
  Al  Al4  1  0.79198178  0.27419178  0.20462549  1
  Al  Al5  1  0.12031548  0.59665710  0.40190465  1
  Al  Al6  1  0.90177707  0.38564157  0.59969279  1
  Al  Al7  1  0.68556306  0.17107977  0.79442589  1
  Co  Co8  1  0.90097318  0.88673375  0.58923889  1
  Co  Co9  1  0.40014898  0.89394641  0.59233377  1
  Co  Co10  1  0.29512944  0.29727292  0.20316243  1
  Co  Co11  1  0.00776370  0.01099305  0.99829227  1
  Fe  Fe12  1  0.79911681  0.79506956  0.21278521  1
  Fe  Fe13  1  0.60733679  0.60857495  0.40403664  1
  Fe  Fe14  1  0.69280627  0.69256828  0.78889041  1
  Fe  Fe15  1  0.10922293  0.09486523  0.40688924  1
  Ni  Ni16  1  0.49958469  0.01126433  0.99939078  1
  Ni  Ni17  1  0.59920734  0.10737896  0.40561789  1
  Ni  Ni18  1  0.40095869  0.39617511  0.60091015  1
  Ni  Ni19  1  0.18965502  0.19897462  0.79562336  1
