# generated using pymatgen
data_ScAlFeCoNi
_symmetry_space_group_name_H-M   'P 1'
_cell_length_a   5.27430363
_cell_length_b   5.19645890
_cell_length_c   10.12244486
_cell_angle_alpha   97.74673126
_cell_angle_beta   98.44819697
_cell_angle_gamma   87.47486554
_symmetry_Int_Tables_number   1
_chemical_formula_structural   ScAlFeCoNi
_chemical_formula_sum   'Sc4 Al4 Fe4 Co4 Ni4'
_cell_volume   271.83479121
_cell_formula_units_Z   4
loop_
 _symmetry_equiv_pos_site_id
 _symmetry_equiv_pos_as_xyz
  1  'x, y, z'
loop_
 _atom_site_type_symbol
 _atom_site_label
 _atom_site_symmetry_multiplicity
 _atom_site_fract_x
 _atom_site_fract_y
 _atom_site_fract_z
 _atom_site_occupancy
  Sc  Sc0  1  0.51746852  0.54100699  0.00115777  1
  Sc  Sc1  1  0.28771786  0.89542089  0.20567274  1
  Sc  Sc2  1  0.02851473  0.35483284  0.00049898  1
  Sc  Sc3  1  0.18873376  0.79128778  0.78465057  1
  Al  Al4  1  0.78811359  0.24652913  0.22105784  1
  Al  Al5  1  0.12220707  0.61136886  0.41898359  1
  Al  Al6  1  0.89479513  0.38893110  0.59537074  1
  Al  Al7  1  0.67689391  0.13613267  0.77607573  1
  Co  Co8  1  0.88943048  0.89790185  0.58010335  1
  Co  Co9  1  0.41420343  0.90754070  0.57608349  1
  Co  Co10  1  0.31994155  0.39134221  0.23321523  1
  Co  Co11  1  0.90585107  0.86863764  0.99511986  1
  Fe  Fe12  1  0.81828693  0.74996431  0.22273298  1
  Fe  Fe13  1  0.61798316  0.61371836  0.41077352  1
  Fe  Fe14  1  0.70661143  0.64855163  0.78405139  1
  Fe  Fe15  1  0.10427164  0.11029623  0.42435231  1
  Ni  Ni16  1  0.47795221  0.05557337  0.99960528  1
  Ni  Ni17  1  0.60227299  0.11388230  0.40900149  1
  Ni  Ni18  1  0.41904183  0.40554728  0.58819475  1
  Ni  Ni19  1  0.21970866  0.27153385  0.77329837  1
