# generated using pymatgen
data_AlFeCoNiRh
_symmetry_space_group_name_H-M   'P 1'
_cell_length_a   5.27988722
_cell_length_b   7.16642226
_cell_length_c   6.90553987
_cell_angle_alpha   105.14201077
_cell_angle_beta   101.63172629
_cell_angle_gamma   90.21753704
_symmetry_Int_Tables_number   1
_chemical_formula_structural   AlFeCoNiRh
_chemical_formula_sum   'Al4 Fe4 Co4 Ni4 Rh4'
_cell_volume   246.59890405
_cell_formula_units_Z   4
loop_
 _symmetry_equiv_pos_site_id
 _symmetry_equiv_pos_as_xyz
  1  'x, y, z'
loop_
 _atom_site_type_symbol
 _atom_site_label
 _atom_site_symmetry_multiplicity
 _atom_site_fract_x
 _atom_site_fract_y
 _atom_site_fract_z
 _atom_site_occupancy
  Rh  Rh0  1  0.48681991  0.49035735  0.00326511  1
  Rh  Rh1  1  0.30641380  0.81365053  0.20312081  1
  Rh  Rh2  1  0.99186261  0.48983671  0.00724777  1
  Rh  Rh3  1  0.19139378  0.70640939  0.78977734  1
  Al  Al4  1  0.79046124  0.28513271  0.19854385  1
  Al  Al5  1  0.12356597  0.61177027  0.39884466  1
  Al  Al6  1  0.91922357  0.39909684  0.61780502  1
  Al  Al7  1  0.67879799  0.18501798  0.79017545  1
  Co  Co8  1  0.89141092  0.89947893  0.58319854  1
  Co  Co9  1  0.40524880  0.90415712  0.59795837  1
  Co  Co10  1  0.28887612  0.28481582  0.20435552  1
  Co  Co11  1  0.00005076  0.00049014  0.99531135  1
  Fe  Fe12  1  0.79430598  0.81677449  0.19561800  1
  Fe  Fe13  1  0.61679697  0.60210720  0.41226111  1
  Fe  Fe14  1  0.68997486  0.71220501  0.79834249  1
  Fe  Fe15  1  0.11714080  0.09717552  0.40778135  1
  Ni  Ni16  1  0.49913000  0.00589925  0.99728687  1
  Ni  Ni17  1  0.61397388  0.11202671  0.40607384  1
  Ni  Ni18  1  0.40476000  0.39835973  0.59628959  1
  Ni  Ni19  1  0.18979203  0.18523828  0.79674295  1
