# generated using pymatgen
data_AlFeCoNiPt
_symmetry_space_group_name_H-M   'P 1'
_cell_length_a   5.31719111
_cell_length_b   7.22512835
_cell_length_c   6.97983796
_cell_angle_alpha   105.13984875
_cell_angle_beta   101.72903578
_cell_angle_gamma   90.17023516
_symmetry_Int_Tables_number   1
_chemical_formula_structural   AlFeCoNiPt
_chemical_formula_sum   'Al4 Fe4 Co4 Ni4 Pt4'
_cell_volume   252.98921127
_cell_formula_units_Z   4
loop_
 _symmetry_equiv_pos_site_id
 _symmetry_equiv_pos_as_xyz
  1  'x, y, z'
loop_
 _atom_site_type_symbol
 _atom_site_label
 _atom_site_symmetry_multiplicity
 _atom_site_fract_x
 _atom_site_fract_y
 _atom_site_fract_z
 _atom_site_occupancy
  Pt  Pt0  1  0.49567288  0.48267163  0.00404719  1
  Pt  Pt1  1  0.31090792  0.81926724  0.20991138  1
  Pt  Pt2  1  0.99416360  0.48593061  0.00360014  1
  Pt  Pt3  1  0.18869910  0.70642028  0.78233093  1
  Al  Al4  1  0.79057424  0.28175607  0.20025725  1
  Al  Al5  1  0.12359179  0.61218580  0.39816307  1
  Al  Al6  1  0.91393018  0.39823277  0.61191788  1
  Al  Al7  1  0.68150734  0.18276279  0.78848012  1
  Co  Co8  1  0.88734072  0.89893712  0.58245309  1
  Co  Co9  1  0.40834779  0.90585126  0.60082293  1
  Co  Co10  1  0.28492278  0.27873724  0.20947496  1
  Co  Co11  1  0.99327806  0.00058496  0.99531260  1
  Fe  Fe12  1  0.79665082  0.82336273  0.19729722  1
  Fe  Fe13  1  0.61818150  0.60480472  0.41406181  1
  Fe  Fe14  1  0.68732406  0.71283617  0.79621951  1
  Fe  Fe15  1  0.11558916  0.10028603  0.41127584  1
  Ni  Ni16  1  0.49996399  0.00872317  0.99448816  1
  Ni  Ni17  1  0.61672199  0.11550412  0.41106685  1
  Ni  Ni18  1  0.40489480  0.39950776  0.59610756  1
  Ni  Ni19  1  0.18773728  0.18163753  0.79271149  1
