# generated using pymatgen
data_AlFeCoNiPd
_symmetry_space_group_name_H-M   'P 1'
_cell_length_a   5.25324747
_cell_length_b   7.21590518
_cell_length_c   6.92144261
_cell_angle_alpha   104.94419106
_cell_angle_beta   101.58657914
_cell_angle_gamma   89.94796019
_symmetry_Int_Tables_number   1
_chemical_formula_structural   AlFeCoNiPd
_chemical_formula_sum   'Al4 Fe4 Co4 Ni4 Pd4'
_cell_volume   247.97181067
_cell_formula_units_Z   4
loop_
 _symmetry_equiv_pos_site_id
 _symmetry_equiv_pos_as_xyz
  1  'x, y, z'
loop_
 _atom_site_type_symbol
 _atom_site_label
 _atom_site_symmetry_multiplicity
 _atom_site_fract_x
 _atom_site_fract_y
 _atom_site_fract_z
 _atom_site_occupancy
  Pd  Pd0  1  0.49267135  0.48484809  0.00131958  1
  Pd  Pd1  1  0.30307058  0.81477749  0.20602261  1
  Pd  Pd2  1  0.98771103  0.48522725  0.00032128  1
  Pd  Pd3  1  0.19152672  0.70503154  0.78408380  1
  Al  Al4  1  0.78574886  0.28890345  0.20337339  1
  Al  Al5  1  0.13021660  0.61143888  0.39613888  1
  Al  Al6  1  0.91258461  0.40244040  0.60893908  1
  Al  Al7  1  0.68060714  0.18355350  0.78846210  1
  Co  Co8  1  0.88871781  0.90376420  0.59130955  1
  Co  Co9  1  0.40860634  0.90500932  0.60065721  1
  Co  Co10  1  0.28441041  0.27538204  0.21051369  1
  Co  Co11  1  0.99017076  0.00349311  0.99531127  1
  Fe  Fe12  1  0.79015180  0.81658781  0.21178748  1
  Fe  Fe13  1  0.63666560  0.60861291  0.40592187  1
  Fe  Fe14  1  0.69232825  0.72072337  0.79788548  1
  Fe  Fe15  1  0.10207004  0.09381720  0.40562265  1
  Ni  Ni16  1  0.50632035  0.00767106  0.00059341  1
  Ni  Ni17  1  0.61497560  0.10975408  0.40767872  1
  Ni  Ni18  1  0.41065412  0.39802398  0.59193100  1
  Ni  Ni19  1  0.19079202  0.18094032  0.79212693  1
