# generated using pymatgen
data_AlFeCoNiOs
_symmetry_space_group_name_H-M   'P 1'
_cell_length_a   5.22207814
_cell_length_b   5.21101804
_cell_length_c   9.18032118
_cell_angle_alpha   98.21442805
_cell_angle_beta   98.57141713
_cell_angle_gamma   89.14355695
_symmetry_Int_Tables_number   1
_chemical_formula_structural   AlFeCoNiOs
_chemical_formula_sum   'Al4 Fe4 Co4 Ni4 Os4'
_cell_volume   244.48822071
_cell_formula_units_Z   4
loop_
 _symmetry_equiv_pos_site_id
 _symmetry_equiv_pos_as_xyz
  1  'x, y, z'
loop_
 _atom_site_type_symbol
 _atom_site_label
 _atom_site_symmetry_multiplicity
 _atom_site_fract_x
 _atom_site_fract_y
 _atom_site_fract_z
 _atom_site_occupancy
  Os  Os0  1  0.50072661  0.51725403  0.00108900  1
  Os  Os1  1  0.30011698  0.82153852  0.19970537  1
  Os  Os2  1  0.99657945  0.51150421  0.00274940  1
  Os  Os3  1  0.19595510  0.71462439  0.79751173  1
  Al  Al4  1  0.79049950  0.27495135  0.20233970  1
  Al  Al5  1  0.12204231  0.59934016  0.40164936  1
  Al  Al6  1  0.90331036  0.38828144  0.60093342  1
  Al  Al7  1  0.68440853  0.17458081  0.79717606  1
  Co  Co8  1  0.89820062  0.89207662  0.59130433  1
  Co  Co9  1  0.39933374  0.89595226  0.59400441  1
  Co  Co10  1  0.29396134  0.29476766  0.20090601  1
  Co  Co11  1  0.00670440  0.00796869  0.99784446  1
  Fe  Fe12  1  0.79842887  0.79104618  0.20651180  1
  Fe  Fe13  1  0.61156875  0.60967051  0.40414662  1
  Fe  Fe14  1  0.69560981  0.69343236  0.79432280  1
  Fe  Fe15  1  0.10762844  0.09833182  0.40695155  1
  Ni  Ni16  1  0.49933850  0.01187221  0.99985203  1
  Ni  Ni17  1  0.59880713  0.10802061  0.40364220  1
  Ni  Ni18  1  0.40594110  0.39684922  0.59973636  1
  Ni  Ni19  1  0.19083844  0.19793693  0.79762341  1
