# generated using pymatgen
data_AlFeCoNiMo
_symmetry_space_group_name_H-M   'P 1'
_cell_length_a   5.04152464
_cell_length_b   5.10802244
_cell_length_c   9.87694800
_cell_angle_alpha   98.72258666
_cell_angle_beta   98.66982943
_cell_angle_gamma   83.54318556
_symmetry_Int_Tables_number   1
_chemical_formula_structural   AlFeCoNiMo
_chemical_formula_sum   'Al4 Fe4 Co4 Ni4 Mo4'
_cell_volume   247.49180677
_cell_formula_units_Z   4
loop_
 _symmetry_equiv_pos_site_id
 _symmetry_equiv_pos_as_xyz
  1  'x, y, z'
loop_
 _atom_site_type_symbol
 _atom_site_label
 _atom_site_symmetry_multiplicity
 _atom_site_fract_x
 _atom_site_fract_y
 _atom_site_fract_z
 _atom_site_occupancy
  Mo  Mo0  1  0.44534778  0.50154569  0.00138368  1
  Mo  Mo1  1  0.30774644  0.85542609  0.20745239  1
  Mo  Mo2  1  0.94741260  0.52297986  0.00076866  1
  Mo  Mo3  1  0.21963311  0.74133872  0.78796766  1
  Al  Al4  1  0.79110494  0.25259318  0.20601987  1
  Al  Al5  1  0.12389906  0.58821022  0.41247416  1
  Al  Al6  1  0.88809011  0.39096345  0.59496526  1
  Al  Al7  1  0.68005718  0.15997813  0.79160425  1
  Co  Co8  1  0.89685615  0.89259259  0.59010388  1
  Co  Co9  1  0.40773630  0.89184138  0.58965816  1
  Co  Co10  1  0.27528051  0.32685078  0.20793117  1
  Co  Co11  1  0.04745481  0.02161127  0.99049144  1
  Fe  Fe12  1  0.81457852  0.76033186  0.22178835  1
  Fe  Fe13  1  0.60757755  0.61542871  0.40101145  1
  Fe  Fe14  1  0.71203071  0.67185887  0.78984640  1
  Fe  Fe15  1  0.10675355  0.08670787  0.41338769  1
  Ni  Ni16  1  0.55901349  0.98651944  0.00221129  1
  Ni  Ni17  1  0.59910133  0.11631835  0.40187849  1
  Ni  Ni18  1  0.40203020  0.38967684  0.60133411  1
  Ni  Ni19  1  0.16829568  0.22722668  0.78772165  1
