# generated using pymatgen
data_AlFeCoNiIr
_symmetry_space_group_name_H-M   'P 1'
_cell_length_a   5.29712506
_cell_length_b   7.15484860
_cell_length_c   6.94121330
_cell_angle_alpha   105.10346798
_cell_angle_beta   101.37768672
_cell_angle_gamma   90.22045326
_symmetry_Int_Tables_number   1
_chemical_formula_structural   AlFeCoNiIr
_chemical_formula_sum   'Al4 Fe4 Co4 Ni4 Ir4'
_cell_volume   248.56961170
_cell_formula_units_Z   4
loop_
 _symmetry_equiv_pos_site_id
 _symmetry_equiv_pos_as_xyz
  1  'x, y, z'
loop_
 _atom_site_type_symbol
 _atom_site_label
 _atom_site_symmetry_multiplicity
 _atom_site_fract_x
 _atom_site_fract_y
 _atom_site_fract_z
 _atom_site_occupancy
  Ir  Ir0  1  0.49273086  0.49435880  0.00047997  1
  Ir  Ir1  1  0.30778913  0.81427409  0.20282245  1
  Ir  Ir2  1  0.99531538  0.49352678  0.00839634  1
  Ir  Ir3  1  0.19468544  0.70936042  0.79209623  1
  Al  Al4  1  0.79056522  0.28318396  0.19887377  1
  Al  Al5  1  0.12032327  0.61083183  0.40046456  1
  Al  Al6  1  0.91465441  0.39841587  0.61544597  1
  Al  Al7  1  0.67919654  0.18099460  0.78799055  1
  Co  Co8  1  0.89196243  0.89815916  0.58723708  1
  Co  Co9  1  0.40286061  0.90199299  0.59618354  1
  Co  Co10  1  0.28997927  0.28718509  0.20484403  1
  Co  Co11  1  0.99848261  0.00042111  0.99618000  1
  Fe  Fe12  1  0.79508039  0.81504777  0.19616121  1
  Fe  Fe13  1  0.61235746  0.60130096  0.40925863  1
  Fe  Fe14  1  0.69238662  0.71269303  0.79757419  1
  Fe  Fe15  1  0.11526520  0.09615126  0.40786982  1
  Ni  Ni16  1  0.50019771  0.00608546  0.99791617  1
  Ni  Ni17  1  0.61282709  0.11028985  0.40618564  1
  Ni  Ni18  1  0.40225653  0.39835858  0.59561716  1
  Ni  Ni19  1  0.19108385  0.18736839  0.79840271  1
