# generated using pymatgen
data_AlFeCoCuNi
_symmetry_space_group_name_H-M   'P 1'
_cell_length_a   5.06219269
_cell_length_b   6.10323862
_cell_length_c   7.88819628
_cell_angle_alpha   104.82664465
_cell_angle_beta   100.09353182
_cell_angle_gamma   89.59304901
_symmetry_Int_Tables_number   1
_chemical_formula_structural   AlFeCoCuNi
_chemical_formula_sum   'Al4 Fe4 Co4 Cu4 Ni4'
_cell_volume   231.76856232
_cell_formula_units_Z   4
loop_
 _symmetry_equiv_pos_site_id
 _symmetry_equiv_pos_as_xyz
  1  'x, y, z'
loop_
 _atom_site_type_symbol
 _atom_site_label
 _atom_site_symmetry_multiplicity
 _atom_site_fract_x
 _atom_site_fract_y
 _atom_site_fract_z
 _atom_site_occupancy
  Cu  Cu0  1  0.50152749  0.46696701  0.03444511  1
  Cu  Cu1  1  0.29227938  0.83911311  0.16416584  1
  Cu  Cu2  1  0.00462809  0.46303424  0.02867307  1
  Cu  Cu3  1  0.21755321  0.66822384  0.83440822  1
  Al  Al4  1  0.79588868  0.24558970  0.21904806  1
  Al  Al5  1  0.10265241  0.63844951  0.36122734  1
  Al  Al6  1  0.89309537  0.44078682  0.57880927  1
  Al  Al7  1  0.67060720  0.22138283  0.76988180  1
  Co  Co8  1  0.91602700  0.86598520  0.63532236  1
  Co  Co9  1  0.40700455  0.86177403  0.62885759  1
  Co  Co10  1  0.30357316  0.26737090  0.23863548  1
  Co  Co11  1  0.98615700  0.02729094  0.96010280  1
  Fe  Fe12  1  0.78674123  0.82780674  0.15978897  1
  Fe  Fe13  1  0.60357394  0.64333273  0.37192799  1
  Fe  Fe14  1  0.71433853  0.68791661  0.84458604  1
  Fe  Fe15  1  0.12492735  0.07136608  0.43701422  1
  Ni  Ni16  1  0.48104379  0.03000485  0.96432877  1
  Ni  Ni17  1  0.61981069  0.06819021  0.43507916  1
  Ni  Ni18  1  0.39942695  0.43747104  0.57006089  1
  Ni  Ni19  1  0.17914400  0.22794360  0.76363702  1
