# generated using pymatgen
data_AlCrFeCoNi
_symmetry_space_group_name_H-M   'P 1'
_cell_length_a   5.67053551
_cell_length_b   5.51504008
_cell_length_c   7.77615243
_cell_angle_alpha   100.34712946
_cell_angle_beta   100.89756851
_cell_angle_gamma   89.25749583
_symmetry_Int_Tables_number   1
_chemical_formula_structural   AlCrFeCoNi
_chemical_formula_sum   'Al4 Cr4 Fe4 Co4 Ni4'
_cell_volume   234.86102482
_cell_formula_units_Z   4
loop_
 _symmetry_equiv_pos_site_id
 _symmetry_equiv_pos_as_xyz
  1  'x, y, z'
loop_
 _atom_site_type_symbol
 _atom_site_label
 _atom_site_symmetry_multiplicity
 _atom_site_fract_x
 _atom_site_fract_y
 _atom_site_fract_z
 _atom_site_occupancy
  Cr  Cr0  1  0.48355104  0.51986982  0.99777535  1
  Cr  Cr1  1  0.30339094  0.79995135  0.18749445  1
  Cr  Cr2  1  0.00811110  0.51488644  0.00156830  1
  Cr  Cr3  1  0.20153041  0.70692871  0.80871767  1
  Al  Al4  1  0.78730641  0.28452896  0.19667074  1
  Al  Al5  1  0.11800514  0.60619691  0.40389374  1
  Al  Al6  1  0.89490318  0.38856786  0.60066737  1
  Al  Al7  1  0.68729911  0.18195745  0.80358700  1
  Co  Co8  1  0.89916939  0.88521013  0.59747245  1
  Co  Co9  1  0.40448864  0.89488826  0.59847473  1
  Co  Co10  1  0.29581169  0.30401413  0.20048362  1
  Co  Co11  1  0.00609060  0.00393522  0.00068059  1
  Fe  Fe12  1  0.80223174  0.79891715  0.19647825  1
  Fe  Fe13  1  0.59483958  0.60743423  0.39372284  1
  Fe  Fe14  1  0.70265809  0.70254211  0.80669270  1
  Fe  Fe15  1  0.11325962  0.09374599  0.40079006  1
  Ni  Ni16  1  0.48994025  0.00523621  0.99960462  1
  Ni  Ni17  1  0.60146087  0.09768276  0.40149781  1
  Ni  Ni18  1  0.41052670  0.40392922  0.60622526  1
  Ni  Ni19  1  0.19542551  0.19957709  0.79750248  1
