# generated using pymatgen
data_CrFeCoNiOs
_symmetry_space_group_name_H-M   'P 1'
_cell_length_a   5.74804932
_cell_length_b   5.67430994
_cell_length_c   7.13485152
_cell_angle_alpha   90.13270400
_cell_angle_beta   90.12405250
_cell_angle_gamma   90.21144166
_symmetry_Int_Tables_number   1
_chemical_formula_structural   CrFeCoNiOs
_chemical_formula_sum   'Cr4 Fe4 Co4 Ni4 Os4'
_cell_volume   232.70908116
_cell_formula_units_Z   4
loop_
 _symmetry_equiv_pos_site_id
 _symmetry_equiv_pos_as_xyz
  1  'x, y, z'
loop_
 _atom_site_type_symbol
 _atom_site_label
 _atom_site_symmetry_multiplicity
 _atom_site_fract_x
 _atom_site_fract_y
 _atom_site_fract_z
 _atom_site_occupancy
  Co  Co0  1  0.20819774  0.59475756  0.49991895  1
  Co  Co1  1  0.29721282  0.89836488  0.74691846  1
  Co  Co2  1  0.19536819  0.60074694  0.99553908  1
  Co  Co3  1  0.30285617  0.89954291  0.25816456  1
  Cr  Cr4  1  0.37735147  0.20105860  0.50311075  1
  Cr  Cr5  1  0.48638279  0.50355789  0.25556708  1
  Cr  Cr6  1  0.60202259  0.78857652  0.49900569  1
  Cr  Cr7  1  0.80717283  0.40213877  0.49882843  1
  Fe  Fe8  1  0.11419170  0.30039342  0.74114611  1
  Fe  Fe9  1  0.49153142  0.51132295  0.74489050  1
  Fe  Fe10  1  0.81108540  0.40376956  0.00169024  1
  Fe  Fe11  1  0.90874643  0.70006580  0.25686411  1
  Ni  Ni12  1  0.00198209  0.99672440  0.49506858  1
  Ni  Ni13  1  0.09562663  0.30196981  0.25616041  1
  Ni  Ni14  1  0.70059217  0.10165465  0.25757597  1
  Ni  Ni15  1  0.90195975  0.69290803  0.74602461  1
  Os  Os16  1  0.00364650  0.99708913  0.99970194  1
  Os  Os17  1  0.69924664  0.10747001  0.73465627  1
  Os  Os18  1  0.40407198  0.21011101  0.00304407  1
  Os  Os19  1  0.59075468  0.78777716  0.00612419  1
