# generated using pymatgen
data_YCrFeCoNi
_symmetry_space_group_name_H-M   'P 1'
_cell_length_a   5.70450762
_cell_length_b   5.43394642
_cell_length_c   9.86069960
_cell_angle_alpha   74.60980875
_cell_angle_beta   89.49724556
_cell_angle_gamma   88.66813988
_symmetry_Int_Tables_number   1
_chemical_formula_structural   YCrFeCoNi
_chemical_formula_sum   'Y4 Cr4 Fe4 Co4 Ni4'
_cell_volume   294.62038793
_cell_formula_units_Z   4
loop_
 _symmetry_equiv_pos_site_id
 _symmetry_equiv_pos_as_xyz
  1  'x, y, z'
loop_
 _atom_site_type_symbol
 _atom_site_label
 _atom_site_symmetry_multiplicity
 _atom_site_fract_x
 _atom_site_fract_y
 _atom_site_fract_z
 _atom_site_occupancy
  Co  Co0  1  0.00271338  0.97530806  0.49192449  1
  Co  Co1  1  0.73779176  0.35105657  0.43428303  1
  Co  Co2  1  0.94260583  0.61302854  0.74253740  1
  Co  Co3  1  0.75845178  0.50404742  0.97422757  1
  Cr  Cr4  1  0.26840263  0.28445993  0.82050925  1
  Cr  Cr5  1  0.98753578  0.37405122  0.21068738  1
  Cr  Cr6  1  0.23408427  0.89797740  0.71437042  1
  Cr  Cr7  1  0.71102631  0.69101889  0.52881543  1
  Fe  Fe8  1  0.44487955  0.98688933  0.50610389  1
  Fe  Fe9  1  0.51522117  0.60602783  0.76239561  1
  Fe  Fe10  1  0.24881910  0.08087166  0.28473443  1
  Fe  Fe11  1  0.46017934  0.21238244  0.05201823  1
  Ni  Ni12  1  0.17068995  0.55059676  0.96668099  1
  Ni  Ni13  1  0.67595553  0.07039964  0.28360699  1
  Ni  Ni14  1  0.46991762  0.87337411  0.93365156  1
  Ni  Ni15  1  0.97013052  0.73464311  0.30831530  1
  Y  Y16  1  0.96296206  0.97887419  0.03578637  1
  Y  Y17  1  0.22348985  0.46226669  0.52426410  1
  Y  Y18  1  0.73709272  0.12962503  0.71480356  1
  Y  Y19  1  0.47805083  0.62310120  0.21028399  1
