# generated using pymatgen
data_AlFeCoNiAg
_symmetry_space_group_name_H-M   'P 1'
_cell_length_a   5.73957446
_cell_length_b   5.34844949
_cell_length_c   9.34340000
_cell_angle_alpha   107.85313086
_cell_angle_beta   94.65888826
_cell_angle_gamma   104.09548451
_symmetry_Int_Tables_number   1
_chemical_formula_structural   AlFeCoNiAg
_chemical_formula_sum   'Al4 Fe4 Co4 Ni4 Ag4'
_cell_volume   260.98800977
_cell_formula_units_Z   4
loop_
 _symmetry_equiv_pos_site_id
 _symmetry_equiv_pos_as_xyz
  1  'x, y, z'
loop_
 _atom_site_type_symbol
 _atom_site_label
 _atom_site_symmetry_multiplicity
 _atom_site_fract_x
 _atom_site_fract_y
 _atom_site_fract_z
 _atom_site_occupancy
  Ag  Ag0  1  0.97016520  0.45313533  0.55844280  1
  Ag  Ag1  1  0.73292277  0.24230521  0.25197275  1
  Ag  Ag2  1  0.16648390  0.63957434  0.33747630  1
  Ag  Ag3  1  0.94708818  0.94728648  0.54750522  1
  Al  Al4  1  0.15332891  0.66697666  0.84975004  1
  Al  Al5  1  0.53635226  0.53656604  0.47205152  1
  Al  Al6  1  0.91679010  0.43830311  0.03784510  1
  Al  Al7  1  0.34153038  0.32145756  0.12528990  1
  Co  Co8  1  0.54918771  0.56097571  0.94867164  1
  Co  Co9  1  0.74350120  0.76474627  0.77079193  1
  Co  Co10  1  0.37931866  0.36096371  0.67343372  1
  Co  Co11  1  0.54607567  0.03840987  0.93926494  1
  Fe  Fe12  1  0.38654353  0.89089546  0.67062388  1
  Fe  Fe13  1  0.15672505  0.16062352  0.84411686  1
  Fe  Fe14  1  0.72644655  0.74896453  0.23754437  1
  Fe  Fe15  1  0.33445935  0.83219921  0.13067524  1
  Ni  Ni16  1  0.75411366  0.26810405  0.76519476  1
  Ni  Ni17  1  0.53922061  0.05122237  0.46550688  1
  Ni  Ni18  1  0.17102872  0.12825991  0.32837294  1
  Ni  Ni19  1  0.94871759  0.94903066  0.04546921  1
