# generated using pymatgen
data_MnAlFeCoNi
_symmetry_space_group_name_H-M   'P 1'
_cell_length_a   5.06754744
_cell_length_b   5.10896217
_cell_length_c   9.17928853
_cell_angle_alpha   98.31601352
_cell_angle_beta   98.83861063
_cell_angle_gamma   88.38749327
_symmetry_Int_Tables_number   1
_chemical_formula_structural   MnAlFeCoNi
_chemical_formula_sum   'Mn4 Al4 Fe4 Co4 Ni4'
_cell_volume   232.35546196
_cell_formula_units_Z   4
loop_
 _symmetry_equiv_pos_site_id
 _symmetry_equiv_pos_as_xyz
  1  'x, y, z'
loop_
 _atom_site_type_symbol
 _atom_site_label
 _atom_site_symmetry_multiplicity
 _atom_site_fract_x
 _atom_site_fract_y
 _atom_site_fract_z
 _atom_site_occupancy
  Mn  Mn0  1  0.49081736  0.51328374  0.00232984  1
  Mn  Mn1  1  0.30674787  0.81119480  0.19164464  1
  Mn  Mn2  1  0.00532713  0.50650717  0.00271317  1
  Mn  Mn3  1  0.19980355  0.71306091  0.80486596  1
  Al  Al4  1  0.79511023  0.28086426  0.19881436  1
  Al  Al5  1  0.11570238  0.60405988  0.40196297  1
  Al  Al6  1  0.89469556  0.39203260  0.59955191  1
  Al  Al7  1  0.68712543  0.17932142  0.80125551  1
  Co  Co8  1  0.89451957  0.89089625  0.59599469  1
  Co  Co9  1  0.40631325  0.89740180  0.59706991  1
  Co  Co10  1  0.29884019  0.30395596  0.20064593  1
  Co  Co11  1  0.00538720  0.00853397  0.99974843  1
  Fe  Fe12  1  0.80891247  0.79560588  0.19641216  1
  Fe  Fe13  1  0.60129476  0.60641910  0.39323332  1
  Fe  Fe14  1  0.70103397  0.69253838  0.80568880  1
  Fe  Fe15  1  0.10562741  0.09155820  0.40572471  1
  Ni  Ni16  1  0.49541204  0.01095626  0.00116234  1
  Ni  Ni17  1  0.59607996  0.09734753  0.40005158  1
  Ni  Ni18  1  0.40083610  0.40192071  0.60247260  1
  Ni  Ni19  1  0.19041361  0.20254117  0.79865717  1
