# generated using pymatgen
data_MnFeCoNi
_symmetry_space_group_name_H-M   'P 1'
_cell_length_a   4.94459295
_cell_length_b   4.97252387
_cell_length_c   6.98031355
_cell_angle_alpha   89.69639598
_cell_angle_beta   90.28070459
_cell_angle_gamma   90.07267826
_symmetry_Int_Tables_number   1
_chemical_formula_structural   MnFeCoNi
_chemical_formula_sum   'Mn4 Fe4 Co4 Ni4'
_cell_volume   171.62111086
_cell_formula_units_Z   4
loop_
 _symmetry_equiv_pos_site_id
 _symmetry_equiv_pos_as_xyz
  1  'x, y, z'
loop_
 _atom_site_type_symbol
 _atom_site_label
 _atom_site_symmetry_multiplicity
 _atom_site_fract_x
 _atom_site_fract_y
 _atom_site_fract_z
 _atom_site_occupancy
  Mn  Mn0  1  0.24313159  0.74802998  0.75927165  1
  Mn  Mn1  1  0.75101209  0.25153660  0.25561037  1
  Mn  Mn2  1  0.50098954  0.50440923  0.99683561  1
  Mn  Mn3  1  0.00507792  0.49728793  0.99629749  1
  Co  Co4  1  0.49972628  0.50266065  0.50078872  1
  Co  Co5  1  0.24740767  0.25215756  0.25095587  1
  Co  Co6  1  0.24726488  0.74701340  0.24498624  1
  Co  Co7  1  0.00165130  0.00148206  0.00070165  1
  Fe  Fe8  1  0.74448809  0.75222644  0.75026969  1
  Fe  Fe9  1  0.75122323  0.75151723  0.25097139  1
  Fe  Fe10  1  0.00031070  0.99247609  0.49601327  1
  Fe  Fe11  1  0.00973621  0.50131801  0.49955759  1
  Ni  Ni12  1  0.75243630  0.25049603  0.74817079  1
  Ni  Ni13  1  0.24947596  0.24703896  0.74969734  1
  Ni  Ni14  1  0.49579282  0.99644545  0.49927457  1
  Ni  Ni15  1  0.50027540  0.00390435  0.00059778  1
