# generated using pymatgen
data_AlCdFeCoNi
_symmetry_space_group_name_H-M   'P 1'
_cell_length_a   7.38980267
_cell_length_b   6.60598941
_cell_length_c   9.16343311
_cell_angle_alpha   112.65643315
_cell_angle_beta   84.34983050
_cell_angle_gamma   136.26831779
_symmetry_Int_Tables_number   1
_chemical_formula_structural   AlCdFeCoNi
_chemical_formula_sum   'Al4 Cd4 Fe4 Co4 Ni4'
_cell_volume   273.78820813
_cell_formula_units_Z   4
loop_
 _symmetry_equiv_pos_site_id
 _symmetry_equiv_pos_as_xyz
  1  'x, y, z'
loop_
 _atom_site_type_symbol
 _atom_site_label
 _atom_site_symmetry_multiplicity
 _atom_site_fract_x
 _atom_site_fract_y
 _atom_site_fract_z
 _atom_site_occupancy
  Al  Al0  1  0.77773717  0.99530380  0.61512355  1
  Al  Al1  1  0.37504876  0.75692348  0.17561583  1
  Al  Al2  1  0.16849141  0.07612238  0.70536683  1
  Al  Al3  1  0.13990047  0.62886496  0.50437204  1
  Cd  Cd4  1  0.84412045  0.94411196  0.28953664  1
  Cd  Cd5  1  0.24269807  0.02303185  0.37972426  1
  Cd  Cd6  1  0.06016627  0.06976467  0.02251401  1
  Cd  Cd7  1  0.58975523  0.91442263  0.91969404  1
  Co  Co8  1  0.91315130  0.57808099  0.04119063  1
  Co  Co9  1  0.76098900  0.58415671  0.44077388  1
  Co  Co10  1  0.28874946  0.47314135  0.61188933  1
  Co  Co11  1  0.05792333  0.64803722  0.77579897  1
  Fe  Fe12  1  0.54124336  0.47731705  0.96916519  1
  Fe  Fe13  1  0.56514521  0.15969083  0.76363807  1
  Fe  Fe14  1  0.67331965  0.55659783  0.69807212  1
  Fe  Fe15  1  0.38857101  0.51903648  0.35771824  1
  Ni  Ni16  1  0.89264607  0.35588556  0.22645590  1
  Ni  Ni17  1  0.64717058  0.14078824  0.47889798  1
  Ni  Ni18  1  0.48323207  0.21733803  0.13968826  1
  Ni  Ni19  1  0.08994111  0.38138400  0.88476427  1
