# generated using pymatgen
data_YCrFeCoNi
_symmetry_space_group_name_H-M   'P 1'
_cell_length_a   6.31266213
_cell_length_b   5.26303287
_cell_length_c   9.50145642
_cell_angle_alpha   99.92258642
_cell_angle_beta   101.88251385
_cell_angle_gamma   76.85717781
_symmetry_Int_Tables_number   1
_chemical_formula_structural   YCrFeCoNi
_chemical_formula_sum   'Y4 Cr4 Fe4 Co4 Ni4'
_cell_volume   298.19810405
_cell_formula_units_Z   4
loop_
 _symmetry_equiv_pos_site_id
 _symmetry_equiv_pos_as_xyz
  1  'x, y, z'
loop_
 _atom_site_type_symbol
 _atom_site_label
 _atom_site_symmetry_multiplicity
 _atom_site_fract_x
 _atom_site_fract_y
 _atom_site_fract_z
 _atom_site_occupancy
  Y  Y0  1  0.80999540  0.39735096  0.17492696  1
  Y  Y1  1  0.33784757  0.00870872  0.05952667  1
  Y  Y2  1  0.84625578  0.49772432  0.55205921  1
  Y  Y3  1  0.78501142  0.12577151  0.81577901  1
  Co  Co4  1  0.18438073  0.60303703  0.15028315  1
  Co  Co5  1  0.03672102  0.54774155  0.89051225  1
  Co  Co6  1  0.01787043  0.95932230  0.57408541  1
  Co  Co7  1  0.17636335  0.61770903  0.39554476  1
  Cr  Cr8  1  0.42130607  0.86261754  0.58582933  1
  Cr  Cr9  1  0.37630085  0.38287293  0.59600575  1
  Cr  Cr10  1  0.22920751  0.70046480  0.75711311  1
  Cr  Cr11  1  0.24824771  0.19052748  0.74985153  1
  Fe  Fe12  1  0.84089310  0.92494896  0.31088062  1
  Fe  Fe13  1  0.84503308  0.84162804  0.05768743  1
  Fe  Fe14  1  0.65047141  0.04129048  0.51336325  1
  Fe  Fe15  1  0.17889452  0.10661804  0.38635449  1
  Ni  Ni16  1  0.42956451  0.45626661  0.96298141  1
  Ni  Ni17  1  0.48965653  0.75905161  0.31863384  1
  Ni  Ni18  1  0.47993338  0.28935191  0.32054332  1
  Ni  Ni19  1  0.61604561  0.68699618  0.82803850  1
