# generated using pymatgen
data_TaCrFeCoNi
_symmetry_space_group_name_H-M   'P 1'
_cell_length_a   5.19739293
_cell_length_b   5.21395154
_cell_length_c   9.40666892
_cell_angle_alpha   98.50782233
_cell_angle_beta   96.98936615
_cell_angle_gamma   90.86142844
_symmetry_Int_Tables_number   1
_chemical_formula_structural   TaCrFeCoNi
_chemical_formula_sum   'Ta4 Cr4 Fe4 Co4 Ni4'
_cell_volume   250.09056361
_cell_formula_units_Z   4
loop_
 _symmetry_equiv_pos_site_id
 _symmetry_equiv_pos_as_xyz
  1  'x, y, z'
loop_
 _atom_site_type_symbol
 _atom_site_label
 _atom_site_symmetry_multiplicity
 _atom_site_fract_x
 _atom_site_fract_y
 _atom_site_fract_z
 _atom_site_occupancy
  Ta  Ta0  1  0.81394348  0.31389188  0.21313627  1
  Ta  Ta1  1  0.45267279  0.97887936  0.99667571  1
  Ta  Ta2  1  0.89248522  0.41937648  0.57095844  1
  Ta  Ta3  1  0.77158246  0.19344351  0.81221238  1
  Co  Co4  1  0.29714684  0.79514274  0.20560586  1
  Co  Co5  1  0.03420390  0.50826847  0.00638041  1
  Co  Co6  1  0.89112731  0.91647613  0.58860717  1
  Co  Co7  1  0.11395557  0.61713142  0.39683824  1
  Cr  Cr8  1  0.37884746  0.87387511  0.61325672  1
  Cr  Cr9  1  0.38979914  0.38983835  0.59126158  1
  Cr  Cr10  1  0.15725734  0.70948136  0.79454555  1
  Cr  Cr11  1  0.25936380  0.23837836  0.77682293  1
  Fe  Fe12  1  0.80017650  0.80799611  0.20825367  1
  Fe  Fe13  1  0.97086218  0.97871865  0.01478544  1
  Fe  Fe14  1  0.58227583  0.08527847  0.40013844  1
  Fe  Fe15  1  0.11120977  0.07864849  0.39859803  1
  Ni  Ni16  1  0.51615371  0.49444108  0.00751989  1
  Ni  Ni17  1  0.57976066  0.61917037  0.39637312  1
  Ni  Ni18  1  0.30623432  0.29772484  0.20814921  1
  Ni  Ni19  1  0.68094174  0.68383883  0.79988094  1
