# generated using pymatgen
data_HfCrFeCoNi
_symmetry_space_group_name_H-M   'P 1'
_cell_length_a   5.20544333
_cell_length_b   5.07145451
_cell_length_c   10.20353853
_cell_angle_alpha   97.17996558
_cell_angle_beta   95.14042175
_cell_angle_gamma   88.03041075
_symmetry_Int_Tables_number   1
_chemical_formula_structural   HfCrFeCoNi
_chemical_formula_sum   'Hf4 Cr4 Fe4 Co4 Ni4'
_cell_volume   266.10465712
_cell_formula_units_Z   4
loop_
 _symmetry_equiv_pos_site_id
 _symmetry_equiv_pos_as_xyz
  1  'x, y, z'
loop_
 _atom_site_type_symbol
 _atom_site_label
 _atom_site_symmetry_multiplicity
 _atom_site_fract_x
 _atom_site_fract_y
 _atom_site_fract_z
 _atom_site_occupancy
  Hf  Hf0  1  0.85676895  0.28435129  0.19597615  1
  Hf  Hf1  1  0.36686841  0.00371536  0.01103475  1
  Hf  Hf2  1  0.88319306  0.42950824  0.57545329  1
  Hf  Hf3  1  0.78927632  0.22530527  0.83421127  1
  Co  Co4  1  0.31551293  0.80787751  0.22289244  1
  Co  Co5  1  0.10916734  0.48164754  0.02068881  1
  Co  Co6  1  0.89111412  0.93678821  0.58716486  1
  Co  Co7  1  0.11606631  0.61507907  0.39960664  1
  Cr  Cr8  1  0.37326774  0.87352278  0.57707589  1
  Cr  Cr9  1  0.38414808  0.37468815  0.58655826  1
  Cr  Cr10  1  0.11483177  0.73056573  0.78815755  1
  Cr  Cr11  1  0.27011850  0.25249109  0.77578008  1
  Fe  Fe12  1  0.82306270  0.80415364  0.21816194  1
  Fe  Fe13  1  0.87772063  0.85169346  -0.00673893  1
  Fe  Fe14  1  0.59582783  0.07340948  0.39308739  1
  Fe  Fe15  1  0.12458611  0.08200122  0.39644189  1
  Ni  Ni16  1  0.55777664  0.51663261  0.01962696  1
  Ni  Ni17  1  0.59878191  0.60555880  0.39526477  1
  Ni  Ni18  1  0.35209730  0.32498767  0.22723422  1
  Ni  Ni19  1  0.59981335  0.72602290  0.78232177  1
