# generated using pymatgen
data_TiCrFeCoNi
_symmetry_space_group_name_H-M   'P 1'
_cell_length_a   5.68929826
_cell_length_b   5.62831999
_cell_length_c   7.81962837
_cell_angle_alpha   100.74580263
_cell_angle_beta   99.20299875
_cell_angle_gamma   89.36240943
_symmetry_Int_Tables_number   1
_chemical_formula_structural   TiCrFeCoNi
_chemical_formula_sum   'Ti4 Cr4 Fe4 Co4 Ni4'
_cell_volume   242.79124043
_cell_formula_units_Z   4
loop_
 _symmetry_equiv_pos_site_id
 _symmetry_equiv_pos_as_xyz
  1  'x, y, z'
loop_
 _atom_site_type_symbol
 _atom_site_label
 _atom_site_symmetry_multiplicity
 _atom_site_fract_x
 _atom_site_fract_y
 _atom_site_fract_z
 _atom_site_occupancy
  Ti  Ti0  1  0.81699065  0.31479657  0.20197873  1
  Ti  Ti1  1  0.48541607  0.97248650  0.00634552  1
  Ti  Ti2  1  0.89066617  0.41990045  0.58222572  1
  Ti  Ti3  1  0.72016822  0.20567245  0.80972548  1
  Co  Co4  1  0.28807094  0.79802404  0.20144358  1
  Co  Co5  1  0.02378796  0.49902038  0.99218079  1
  Co  Co6  1  0.88781058  0.91073518  0.59388675  1
  Co  Co7  1  0.11964232  0.60622409  0.40872792  1
  Cr  Cr8  1  0.38793580  0.90174676  0.61300660  1
  Cr  Cr9  1  0.38502221  0.39712301  0.60179892  1
  Cr  Cr10  1  0.19526714  0.70210981  0.78522784  1
  Cr  Cr11  1  0.21520235  0.19902301  0.78211757  1
  Fe  Fe12  1  0.81473268  0.79988508  0.20788144  1
  Fe  Fe13  1  0.00381445  0.98916056  0.00598671  1
  Fe  Fe14  1  0.59089969  0.08707316  0.40108270  1
  Fe  Fe15  1  0.10646446  0.09092462  0.40316502  1
  Ni  Ni16  1  0.48503857  0.49274676  0.99755814  1
  Ni  Ni17  1  0.57627504  0.61064156  0.39584701  1
  Ni  Ni18  1  0.30030516  0.30256817  0.20355720  1
  Ni  Ni19  1  0.70648956  0.70013783  0.80625635  1
