# generated using pymatgen
data_CrFeCoNiMo
_symmetry_space_group_name_H-M   'P 1'
_cell_length_a   5.92878105
_cell_length_b   5.67420393
_cell_length_c   7.48767856
_cell_angle_alpha   100.74521303
_cell_angle_beta   101.74232740
_cell_angle_gamma   89.58291520
_symmetry_Int_Tables_number   1
_chemical_formula_structural   CrFeCoNiMo
_chemical_formula_sum   'Cr4 Fe4 Co4 Ni4 Mo4'
_cell_volume   242.17496417
_cell_formula_units_Z   4
loop_
 _symmetry_equiv_pos_site_id
 _symmetry_equiv_pos_as_xyz
  1  'x, y, z'
loop_
 _atom_site_type_symbol
 _atom_site_label
 _atom_site_symmetry_multiplicity
 _atom_site_fract_x
 _atom_site_fract_y
 _atom_site_fract_z
 _atom_site_occupancy
  Mo  Mo0  1  0.83513607  0.31193895  0.20233031  1
  Mo  Mo1  1  0.49249861  0.01038249  0.00791135  1
  Mo  Mo2  1  0.89917235  0.43014485  0.59434994  1
  Mo  Mo3  1  0.69915775  0.21754716  0.80288327  1
  Co  Co4  1  0.28881753  0.83339405  0.20694316  1
  Co  Co5  1  0.03960733  0.51648666  0.99507650  1
  Co  Co6  1  0.87629985  0.87462909  0.60253762  1
  Co  Co7  1  0.12721270  0.63274985  0.40940642  1
  Cr  Cr8  1  0.43313900  0.89428271  0.60035441  1
  Cr  Cr9  1  0.38168025  0.38062099  0.58325893  1
  Cr  Cr10  1  0.23614724  0.70479956  0.77658968  1
  Cr  Cr11  1  0.19597095  0.19723979  0.78553300  1
  Fe  Fe12  1  0.80967682  0.79072392  0.19789837  1
  Fe  Fe13  1  0.00291519  0.97865406  0.98137310  1
  Fe  Fe14  1  0.60722443  0.09757176  0.39808552  1
  Fe  Fe15  1  0.09202932  0.07161176  0.41907988  1
  Ni  Ni16  1  0.46748648  0.50318901  0.02498891  1
  Ni  Ni17  1  0.56403389  0.58911634  0.37329221  1
  Ni  Ni18  1  0.26849932  0.28383237  0.21594137  1
  Ni  Ni19  1  0.68329492  0.68108462  0.82216606  1
