# generated using pymatgen
data_HfMnFeCoNi
_symmetry_space_group_name_H-M   'P 1'
_cell_length_a   5.72225851
_cell_length_b   5.77528684
_cell_length_c   7.63108514
_cell_angle_alpha   89.69190586
_cell_angle_beta   88.94687720
_cell_angle_gamma   89.49007872
_symmetry_Int_Tables_number   1
_chemical_formula_structural   HfMnFeCoNi
_chemical_formula_sum   'Hf4 Mn4 Fe4 Co4 Ni4'
_cell_volume   252.13367946
_cell_formula_units_Z   4
loop_
 _symmetry_equiv_pos_site_id
 _symmetry_equiv_pos_as_xyz
  1  'x, y, z'
loop_
 _atom_site_type_symbol
 _atom_site_label
 _atom_site_symmetry_multiplicity
 _atom_site_fract_x
 _atom_site_fract_y
 _atom_site_fract_z
 _atom_site_occupancy
  Hf  Hf0  1  0.06674762  0.27926876  0.72962165  1
  Hf  Hf1  1  0.19701460  0.64504073  0.98466012  1
  Hf  Hf2  1  0.30045363  0.89573859  0.29619303  1
  Hf  Hf3  1  0.43056455  0.17850116  0.00007360  1
  Co  Co4  1  0.29183283  0.88380933  0.70657355  1
  Co  Co5  1  0.52949920  0.49485006  0.74473664  1
  Co  Co6  1  0.60973295  0.78184198  0.51071358  1
  Co  Co7  1  0.87385862  0.70479773  0.25638237  1
  Mn  Mn8  1  0.95073976  0.02619167  0.00945841  1
  Mn  Mn9  1  0.20204165  0.57486983  0.51711721  1
  Mn  Mn10  1  0.43398679  0.23276326  0.50145624  1
  Mn  Mn11  1  0.88369478  0.72618178  0.73694005  1
  Fe  Fe12  1  0.73125686  0.09678992  0.26087508  1
  Fe  Fe13  1  0.78642886  0.40894764  0.48145260  1
  Fe  Fe14  1  0.64685948  0.77472839  0.00034250  1
  Fe  Fe15  1  0.81569995  0.40918392  0.01950835  1
  Ni  Ni16  1  0.96988750  0.99057261  0.49762452  1
  Ni  Ni17  1  0.10456030  0.32451735  0.26520604  1
  Ni  Ni18  1  0.66846637  0.08018530  0.73188450  1
  Ni  Ni19  1  0.50667367  0.49122001  0.24917993  1
