# generated using pymatgen
data_MnFeCoReNi
_symmetry_space_group_name_H-M   'P 1'
_cell_length_a   5.66705197
_cell_length_b   5.71475056
_cell_length_c   7.23170308
_cell_angle_alpha   90.04530525
_cell_angle_beta   89.93989645
_cell_angle_gamma   90.03780203
_symmetry_Int_Tables_number   1
_chemical_formula_structural   MnFeCoReNi
_chemical_formula_sum   'Mn4 Fe4 Co4 Re4 Ni4'
_cell_volume   234.20415295
_cell_formula_units_Z   4
loop_
 _symmetry_equiv_pos_site_id
 _symmetry_equiv_pos_as_xyz
  1  'x, y, z'
loop_
 _atom_site_type_symbol
 _atom_site_label
 _atom_site_symmetry_multiplicity
 _atom_site_fract_x
 _atom_site_fract_y
 _atom_site_fract_z
 _atom_site_occupancy
  Re  Re0  1  0.09034606  0.29185948  0.73903718  1
  Re  Re1  1  0.20069317  0.60511805  0.99949958  1
  Re  Re2  1  0.30032859  0.90407855  0.26293566  1
  Re  Re3  1  0.40951935  0.19240397  0.99793767  1
  Co  Co4  1  0.30350114  0.89215063  0.74568858  1
  Co  Co5  1  0.51085334  0.50520463  0.74665967  1
  Co  Co6  1  0.60126870  0.79561569  0.50085155  1
  Co  Co7  1  0.89548659  0.69732892  0.25408060  1
  Mn  Mn8  1  0.98671921  0.00451555  0.99788788  1
  Mn  Mn9  1  0.20747472  0.59583144  0.49897416  1
  Mn  Mn10  1  0.40797221  0.20709364  0.50098355  1
  Mn  Mn11  1  0.88999179  0.71453778  0.74861681  1
  Fe  Fe12  1  0.71005611  0.09343416  0.25664675  1
  Fe  Fe13  1  0.79007607  0.40545606  0.49969453  1
  Fe  Fe14  1  0.60449964  0.79423420  0.99537736  1
  Fe  Fe15  1  0.80223697  0.40190875  0.00467096  1
  Ni  Ni16  1  0.99506121  0.99572334  0.49916526  1
  Ni  Ni17  1  0.09683120  0.30409959  0.25678071  1
  Ni  Ni18  1  0.69012358  0.10292691  0.74076569  1
  Ni  Ni19  1  0.50696036  0.49647865  0.25374587  1
