# generated using pymatgen
data_AlFeCoNiAg
_symmetry_space_group_name_H-M   'P 1'
_cell_length_a   5.80783318
_cell_length_b   5.92005248
_cell_length_c   7.54109930
_cell_angle_alpha   90.56836410
_cell_angle_beta   89.87855938
_cell_angle_gamma   88.76570612
_symmetry_Int_Tables_number   1
_chemical_formula_structural   AlFeCoNiAg
_chemical_formula_sum   'Al4 Fe4 Co4 Ni4 Ag4'
_cell_volume   259.20956153
_cell_formula_units_Z   4
loop_
 _symmetry_equiv_pos_site_id
 _symmetry_equiv_pos_as_xyz
  1  'x, y, z'
loop_
 _atom_site_type_symbol
 _atom_site_label
 _atom_site_symmetry_multiplicity
 _atom_site_fract_x
 _atom_site_fract_y
 _atom_site_fract_z
 _atom_site_occupancy
  Al  Al0  1  0.09151870  0.27902726  0.73953643  1
  Al  Al1  1  0.19980157  0.59046702  0.01010668  1
  Al  Al2  1  0.30004354  0.89959872  0.26307432  1
  Al  Al3  1  0.43485733  0.18768611  0.99585291  1
  Co  Co4  1  0.36115463  0.88754596  0.75852576  1
  Co  Co5  1  0.48578184  0.49037965  0.78006237  1
  Co  Co6  1  0.61127855  0.80253451  0.49095254  1
  Co  Co7  1  0.87762016  0.69696155  0.24648808  1
  Ag  Ag8  1  0.00712824  0.00262853  0.99907956  1
  Ag  Ag9  1  0.20475577  0.61276650  0.50154497  1
  Ag  Ag10  1  0.39846925  0.19657576  0.50085474  1
  Ag  Ag11  1  0.88364774  0.70066712  0.74916603  1
  Fe  Fe12  1  0.70826126  0.08946978  0.24829819  1
  Fe  Fe13  1  0.79175454  0.40718713  0.47462344  1
  Fe  Fe14  1  0.57802789  0.78837310  0.01358287  1
  Fe  Fe15  1  0.78738068  0.42262578  0.01613223  1
  Ni  Ni16  1  0.97584865  0.01366256  0.48470307  1
  Ni  Ni17  1  0.09002340  0.30759089  0.24474794  1
  Ni  Ni18  1  0.70933540  0.12453789  0.73950835  1
  Ni  Ni19  1  0.50331080  0.49971424  0.24315955  1
