# generated using pymatgen
data_YCrFeCoNi
_symmetry_space_group_name_H-M   'P 1'
_cell_length_a   5.36415629
_cell_length_b   5.54934015
_cell_length_c   9.95245019
_cell_angle_alpha   73.22372541
_cell_angle_beta   88.47059631
_cell_angle_gamma   84.36207720
_symmetry_Int_Tables_number   1
_chemical_formula_structural   YCrFeCoNi
_chemical_formula_sum   'Y4 Cr4 Fe4 Co4 Ni4'
_cell_volume   282.27818758
_cell_formula_units_Z   4
loop_
 _symmetry_equiv_pos_site_id
 _symmetry_equiv_pos_as_xyz
  1  'x, y, z'
loop_
 _atom_site_type_symbol
 _atom_site_label
 _atom_site_symmetry_multiplicity
 _atom_site_fract_x
 _atom_site_fract_y
 _atom_site_fract_z
 _atom_site_occupancy
  Co  Co0  1  0.00028978  0.97799537  0.48630528  1
  Co  Co1  1  0.74864214  0.35811683  0.43188847  1
  Co  Co2  1  0.94368757  0.60768856  0.75269324  1
  Co  Co3  1  0.75987377  0.47771385  0.99372729  1
  Cr  Cr4  1  0.25323507  0.26885295  0.82807942  1
  Cr  Cr5  1  0.99568080  0.39183650  0.20376964  1
  Cr  Cr6  1  0.25780985  0.89135816  0.70345181  1
  Cr  Cr7  1  0.69978356  0.69912650  0.54078835  1
  Fe  Fe8  1  0.44432874  0.01290772  0.48347572  1
  Fe  Fe9  1  0.51408982  0.57299461  0.77789739  1
  Fe  Fe10  1  0.23562912  0.08273288  0.27115418  1
  Fe  Fe11  1  0.44354550  0.20004090  0.04886889  1
  Ni  Ni12  1  0.17832977  0.56565543  0.96603473  1
  Ni  Ni13  1  0.68464377  0.10643076  0.27032672  1
  Ni  Ni14  1  0.47757700  0.86583815  0.93275673  1
  Ni  Ni15  1  0.96344878  0.73066467  0.31390475  1
  Y  Y16  1  0.95295214  0.97435540  0.03789826  1
  Y  Y17  1  0.22998156  0.45952486  0.53154681  1
  Y  Y18  1  0.74449509  0.12594191  0.71203632  1
  Y  Y19  1  0.47197618  0.63022398  0.21339602  1
