# generated using pymatgen
data_CrFeCoNiRu
_symmetry_space_group_name_H-M   'P 1'
_cell_length_a   6.03008198
_cell_length_b   6.03519543
_cell_length_c   6.79327267
_cell_angle_alpha   103.96934840
_cell_angle_beta   104.12438324
_cell_angle_gamma   85.74454611
_symmetry_Int_Tables_number   1
_chemical_formula_structural   CrFeCoNiRu
_chemical_formula_sum   'Cr4 Fe4 Co4 Ni4 Ru4'
_cell_volume   232.63024745
_cell_formula_units_Z   4
loop_
 _symmetry_equiv_pos_site_id
 _symmetry_equiv_pos_as_xyz
  1  'x, y, z'
loop_
 _atom_site_type_symbol
 _atom_site_label
 _atom_site_symmetry_multiplicity
 _atom_site_fract_x
 _atom_site_fract_y
 _atom_site_fract_z
 _atom_site_occupancy
  Co  Co0  1  0.26867976  0.26325154  0.14061600  1
  Co  Co1  1  0.47248018  0.46803610  0.95733244  1
  Co  Co2  1  0.88723148  0.38814770  0.94625644  1
  Co  Co3  1  0.68009939  0.17646319  0.14789329  1
  Cr  Cr4  1  0.47134602  0.98911828  0.34115972  1
  Cr  Cr5  1  0.96814274  0.97777486  0.95769738  1
  Cr  Cr6  1  0.55860612  0.55765320  0.34439039  1
  Cr  Cr7  1  0.76239183  0.75964946  0.14203211  1
  Fe  Fe8  1  0.08671993  0.58732320  0.76340037  1
  Fe  Fe9  1  0.19413944  0.68431750  0.14725943  1
  Fe  Fe10  1  0.17546911  0.16471018  0.76094409  1
  Fe  Fe11  1  0.05945389  0.05956623  0.34126778  1
  Ni  Ni12  1  0.38355309  0.88062161  0.95119469  1
  Ni  Ni13  1  0.28641926  0.79032801  0.54767176  1
  Ni  Ni14  1  0.66826734  0.66904771  0.75846283  1
  Ni  Ni15  1  0.58372570  0.08446186  0.76053926  1
  Ru  Ru16  1  0.36410826  0.36287751  0.55164899  1
  Ru  Ru17  1  0.85890210  0.86701170  0.55153239  1
  Ru  Ru18  1  0.79060576  0.28723965  0.55304744  1
  Ru  Ru19  1  0.97965860  0.48240048  0.33565321  1
