# generated using pymatgen
data_MnCrFeCoNi
_symmetry_space_group_name_H-M   'P 1'
_cell_length_a   6.23966730
_cell_length_b   6.15906775
_cell_length_c   6.97723508
_cell_angle_alpha   113.54167179
_cell_angle_beta   111.68690920
_cell_angle_gamma   80.22421237
_symmetry_Int_Tables_number   1
_chemical_formula_structural   MnCrFeCoNi
_chemical_formula_sum   'Mn4 Cr4 Fe4 Co4 Ni4'
_cell_volume   228.34409286
_cell_formula_units_Z   4
loop_
 _symmetry_equiv_pos_site_id
 _symmetry_equiv_pos_as_xyz
  1  'x, y, z'
loop_
 _atom_site_type_symbol
 _atom_site_label
 _atom_site_symmetry_multiplicity
 _atom_site_fract_x
 _atom_site_fract_y
 _atom_site_fract_z
 _atom_site_occupancy
  Co  Co0  1  0.29550102  0.29722843  0.19609621  1
  Co  Co1  1  0.50416054  0.48729082  0.99635240  1
  Co  Co2  1  0.86178302  0.35583650  0.90268357  1
  Co  Co3  1  0.65025002  0.14290478  0.10362409  1
  Cr  Cr4  1  0.46766020  0.94109629  0.29844105  1
  Cr  Cr5  1  0.98884336  0.00715851  0.99867087  1
  Cr  Cr6  1  0.60883272  0.60936423  0.40630352  1
  Cr  Cr7  1  0.80420472  0.79730826  0.21046904  1
  Fe  Fe8  1  0.04914398  0.54579304  0.70054049  1
  Fe  Fe9  1  0.15584233  0.65382846  0.09037196  1
  Fe  Fe10  1  0.20209933  0.19708521  0.79579236  1
  Fe  Fe11  1  0.10045571  0.09631205  0.39578990  1
  Ni  Ni12  1  0.33814457  0.84979747  0.89916357  1
  Ni  Ni13  1  0.24142166  0.74687819  0.48520776  1
  Ni  Ni14  1  0.69578056  0.70777194  0.81020551  1
  Ni  Ni15  1  0.55014783  0.05960521  0.70060019  1
  Mn  Mn16  1  0.39374956  0.40975482  0.59855918  1
  Mn  Mn17  1  0.90114206  0.89511251  0.60989388  1
  Mn  Mn18  1  0.75002412  0.25210326  0.50270239  1
  Mn  Mn19  1  0.94081269  0.44777000  0.29853209  1
