# generated using pymatgen
data_CrFeCoNiIr
_symmetry_space_group_name_H-M   'P 1'
_cell_length_a   6.76295552
_cell_length_b   5.72141557
_cell_length_c   6.78163596
_cell_angle_alpha   114.75673537
_cell_angle_beta   94.08841537
_cell_angle_gamma   90.31346362
_symmetry_Int_Tables_number   1
_chemical_formula_structural   CrFeCoNiIr
_chemical_formula_sum   'Cr4 Fe4 Co4 Ni4 Ir4'
_cell_volume   237.50246628
_cell_formula_units_Z   4
loop_
 _symmetry_equiv_pos_site_id
 _symmetry_equiv_pos_as_xyz
  1  'x, y, z'
loop_
 _atom_site_type_symbol
 _atom_site_label
 _atom_site_symmetry_multiplicity
 _atom_site_fract_x
 _atom_site_fract_y
 _atom_site_fract_z
 _atom_site_occupancy
  Co  Co0  1  0.30390329  0.29605960  0.19038698  1
  Co  Co1  1  0.50137675  0.50566968  0.00835945  1
  Co  Co2  1  0.85771336  0.35249863  0.89794110  1
  Co  Co3  1  0.64857783  0.15668796  0.10251309  1
  Cr  Cr4  1  0.43960434  0.95182283  0.28874197  1
  Cr  Cr5  1  0.00451093  0.99642554  -0.00330139  1
  Cr  Cr6  1  0.59459907  0.59789914  0.38990973  1
  Cr  Cr7  1  0.80265283  0.80223194  0.19125428  1
  Fe  Fe8  1  0.04814056  0.54897146  0.71031565  1
  Fe  Fe9  1  0.15764376  0.64109003  0.08809175  1
  Fe  Fe10  1  0.20000566  0.20905190  0.81578965  1
  Fe  Fe11  1  0.10383687  0.08828846  0.39730120  1
  Ni  Ni12  1  0.34860130  0.85919839  0.90743356  1
  Ni  Ni13  1  0.25210520  0.75049295  0.49792883  1
  Ni  Ni14  1  0.69832476  0.70123906  0.81167318  1
  Ni  Ni15  1  0.54603768  0.05121016  0.70364793  1
  Ir  Ir16  1  0.39018749  0.40144931  0.60229000  1
  Ir  Ir17  1  0.90051167  0.89737974  0.61176382  1
  Ir  Ir18  1  0.74902016  0.24683015  0.49772402  1
  Ir  Ir19  1  0.95264649  0.44550305  0.29023519  1
