# generated using pymatgen
data_CrFeCoNiW
_symmetry_space_group_name_H-M   'P 1'
_cell_length_a   6.77796817
_cell_length_b   6.75842690
_cell_length_c   8.11995844
_cell_angle_alpha   126.08403946
_cell_angle_beta   126.19227726
_cell_angle_gamma   64.61668357
_symmetry_Int_Tables_number   1
_chemical_formula_structural   CrFeCoNiW
_chemical_formula_sum   'Cr4 Fe4 Co4 Ni4 W4'
_cell_volume   240.72560190
_cell_formula_units_Z   4
loop_
 _symmetry_equiv_pos_site_id
 _symmetry_equiv_pos_as_xyz
  1  'x, y, z'
loop_
 _atom_site_type_symbol
 _atom_site_label
 _atom_site_symmetry_multiplicity
 _atom_site_fract_x
 _atom_site_fract_y
 _atom_site_fract_z
 _atom_site_occupancy
  Co  Co0  1  0.29126697  0.29291749  0.19333273  1
  Co  Co1  1  0.50364487  0.51497594  0.01383887  1
  Co  Co2  1  0.85331057  0.35691700  0.90829578  1
  Co  Co3  1  0.64088459  0.14137027  0.08971684  1
  Cr  Cr4  1  0.44010168  0.93869743  0.28136067  1
  Cr  Cr5  1  0.01148846  0.98372442  0.01150941  1
  Cr  Cr6  1  0.56395074  0.62468605  0.39173088  1
  Cr  Cr7  1  0.80392611  0.79200678  0.17798214  1
  Fe  Fe8  1  0.06386173  0.56086140  0.72140992  1
  Fe  Fe9  1  0.14554448  0.62385659  0.08451804  1
  Fe  Fe10  1  0.20483590  0.20393865  0.80831129  1
  Fe  Fe11  1  0.11476009  0.07629540  0.39630132  1
  Ni  Ni12  1  0.35590162  0.85561690  0.90438129  1
  Ni  Ni13  1  0.25063620  0.74498772  0.50132099  1
  Ni  Ni14  1  0.69727776  0.70798947  0.79751318  1
  Ni  Ni15  1  0.54970965  0.05104253  0.70744170  1
  W  W16  1  0.41131002  0.40139110  0.61878131  1
  W  W17  1  0.90308687  0.91982177  0.61202729  1
  W  W18  1  0.76076953  0.27297807  0.49021893  1
  W  W19  1  0.93373218  0.43592501  0.29000745  1
