# generated using pymatgen
data_CrCdFeCoNi
_symmetry_space_group_name_H-M   'P 1'
_cell_length_a   6.97701216
_cell_length_b   6.97618439
_cell_length_c   8.32568625
_cell_angle_alpha   126.00417475
_cell_angle_beta   126.09482223
_cell_angle_gamma   66.11332208
_symmetry_Int_Tables_number   1
_chemical_formula_structural   CrCdFeCoNi
_chemical_formula_sum   'Cr4 Cd4 Fe4 Co4 Ni4'
_cell_volume   263.82963331
_cell_formula_units_Z   4
loop_
 _symmetry_equiv_pos_site_id
 _symmetry_equiv_pos_as_xyz
  1  'x, y, z'
loop_
 _atom_site_type_symbol
 _atom_site_label
 _atom_site_symmetry_multiplicity
 _atom_site_fract_x
 _atom_site_fract_y
 _atom_site_fract_z
 _atom_site_occupancy
  Co  Co0  1  0.29526627  0.28283597  0.16982850  1
  Co  Co1  1  0.49635137  0.49728110  0.00513510  1
  Co  Co2  1  0.86555528  0.36022196  0.92706467  1
  Co  Co3  1  0.63649301  0.13791016  0.07819874  1
  Cr  Cr4  1  0.43606654  0.91817839  0.26201492  1
  Cr  Cr5  1  0.01430815  0.99316699  0.02077548  1
  Cr  Cr6  1  0.53515449  0.62478134  0.37450232  1
  Cr  Cr7  1  0.78019467  0.79244713  0.16007296  1
  Fe  Fe8  1  0.09108511  0.58977063  0.77304087  1
  Fe  Fe9  1  0.13165793  0.62464608  0.09140343  1
  Fe  Fe10  1  0.23235904  0.20510492  0.81663138  1
  Fe  Fe11  1  0.10546728  0.04498153  0.37392158  1
  Ni  Ni12  1  0.35877879  0.86439659  0.90502252  1
  Ni  Ni13  1  0.25161886  0.75717192  0.50119070  1
  Ni  Ni14  1  0.70365332  0.72456354  0.80222947  1
  Ni  Ni15  1  0.54129421  0.04465772  0.70114703  1
  Cd  Cd16  1  0.41468491  0.39935802  0.61224476  1
  Cd  Cd17  1  0.90017136  0.91683345  0.61411671  1
  Cd  Cd18  1  0.76614237  0.27265278  0.49969086  1
  Cd  Cd19  1  0.94369704  0.44903979  0.31176800  1
