# generated using pymatgen
data_CrFeCoNiAg
_symmetry_space_group_name_H-M   'P 1'
_cell_length_a   6.95710577
_cell_length_b   6.93435801
_cell_length_c   8.27698939
_cell_angle_alpha   126.43504281
_cell_angle_beta   126.62191449
_cell_angle_gamma   65.16504019
_symmetry_Int_Tables_number   1
_chemical_formula_structural   CrFeCoNiAg
_chemical_formula_sum   'Cr4 Fe4 Co4 Ni4 Ag4'
_cell_volume   256.49693135
_cell_formula_units_Z   4
loop_
 _symmetry_equiv_pos_site_id
 _symmetry_equiv_pos_as_xyz
  1  'x, y, z'
loop_
 _atom_site_type_symbol
 _atom_site_label
 _atom_site_symmetry_multiplicity
 _atom_site_fract_x
 _atom_site_fract_y
 _atom_site_fract_z
 _atom_site_occupancy
  Co  Co0  1  0.28936317  0.29623166  0.17083104  1
  Co  Co1  1  0.49731830  0.48874381  0.99603407  1
  Co  Co2  1  0.85623399  0.36368044  0.91742178  1
  Co  Co3  1  0.63274998  0.14280055  0.08298722  1
  Cr  Cr4  1  0.44356456  0.92709840  0.27401845  1
  Cr  Cr5  1  0.01028006  0.99457044  0.01869150  1
  Cr  Cr6  1  0.55233933  0.61615918  0.37782463  1
  Cr  Cr7  1  0.78839806  0.79441019  0.17227654  1
  Fe  Fe8  1  0.08567862  0.57255045  0.75564750  1
  Fe  Fe9  1  0.13342644  0.63291259  0.09335622  1
  Fe  Fe10  1  0.22529219  0.20183993  0.81476135  1
  Fe  Fe11  1  0.10264547  0.06151382  0.38446379  1
  Ni  Ni12  1  0.36178334  0.85681190  0.90550952  1
  Ni  Ni13  1  0.25739714  0.75732192  0.50271060  1
  Ni  Ni14  1  0.70246383  0.72164968  0.80518812  1
  Ni  Ni15  1  0.54413619  0.04717202  0.70084734  1
  Ag  Ag16  1  0.40711017  0.39825381  0.60296768  1
  Ag  Ag17  1  0.90472601  0.91099835  0.61428124  1
  Ag  Ag18  1  0.76112217  0.26623285  0.50200949  1
  Ag  Ag19  1  0.94397098  0.44904800  0.30817196  1
