# generated using pymatgen
data_MnFeCoNi
_symmetry_space_group_name_H-M   'P 1'
_cell_length_a   4.93590256
_cell_length_b   4.99151872
_cell_length_c   7.02628502
_cell_angle_alpha   87.63090786
_cell_angle_beta   91.60908406
_cell_angle_gamma   89.30454471
_symmetry_Int_Tables_number   1
_chemical_formula_structural   MnFeCoNi
_chemical_formula_sum   'Mn4 Fe4 Co4 Ni4'
_cell_volume   172.87965801
_cell_formula_units_Z   4
loop_
 _symmetry_equiv_pos_site_id
 _symmetry_equiv_pos_as_xyz
  1  'x, y, z'
loop_
 _atom_site_type_symbol
 _atom_site_label
 _atom_site_symmetry_multiplicity
 _atom_site_fract_x
 _atom_site_fract_y
 _atom_site_fract_z
 _atom_site_occupancy
  Mn  Mn0  1  0.25105120  0.74694262  0.75348947  1
  Mn  Mn1  1  0.74755893  0.24612858  0.24914040  1
  Mn  Mn2  1  0.49944264  0.50015596  0.00450777  1
  Mn  Mn3  1  0.99893212  0.50213333  0.00481648  1
  Co  Co4  1  0.50288366  0.50217499  0.49805928  1
  Co  Co5  1  0.24802870  0.24906042  0.24997267  1
  Co  Co6  1  0.25006629  0.75048154  0.24718382  1
  Co  Co7  1  -0.00046548  0.99909320  0.00082555  1
  Fe  Fe8  1  0.74762192  0.75652819  0.74984681  1
  Fe  Fe9  1  0.75045050  0.74890525  0.24914296  1
  Fe  Fe10  1  0.00091656  0.99559875  0.50038140  1
  Fe  Fe11  1  0.00525120  0.49788656  0.49480920  1
  Ni  Ni12  1  0.75218039  0.25390528  0.74907047  1
  Ni  Ni13  1  0.24920448  0.25030148  0.74880536  1
  Ni  Ni14  1  0.49827152  0.00020728  0.50009127  1
  Ni  Ni15  1  0.49860536  0.00049654  -0.00014288  1
