# generated using pymatgen
data_MnCdFeCoNi
_symmetry_space_group_name_H-M   'P 1'
_cell_length_a   10.58936505
_cell_length_b   10.58936506
_cell_length_c   6.41304765
_cell_angle_alpha   90.38015365
_cell_angle_beta   89.61984634
_cell_angle_gamma   157.91353416
_symmetry_Int_Tables_number   1
_chemical_formula_structural   MnCdFeCoNi
_chemical_formula_sum   'Mn4 Cd4 Fe4 Co4 Ni4'
_cell_volume   270.38864976
_cell_formula_units_Z   4
loop_
 _symmetry_equiv_pos_site_id
 _symmetry_equiv_pos_as_xyz
  1  'x, y, z'
loop_
 _atom_site_type_symbol
 _atom_site_label
 _atom_site_symmetry_multiplicity
 _atom_site_fract_x
 _atom_site_fract_y
 _atom_site_fract_z
 _atom_site_occupancy
  Co  Co0  1  0.09613155  0.90386845  0.22019589  1
  Co  Co1  1  0.30198051  0.69801949  0.26598406  1
  Co  Co2  1  0.99656071  0.00343929  0.53619514  1
  Co  Co3  1  0.80649899  0.19350101  0.44678028  1
  Cd  Cd4  1  0.30057106  0.69942894  0.73132935  1
  Cd  Cd5  1  0.70624735  0.29375265  0.75080866  1
  Cd  Cd6  1  0.59459214  0.40540786  0.52022677  1
  Cd  Cd7  1  0.49845310  0.50154690  0.24427536  1
  Fe  Fe8  1  0.19385624  0.80614376  0.45284110  1
  Fe  Fe9  1  0.39312622  0.60687378  0.02200943  1
  Fe  Fe10  1  0.00373972  0.99626028  0.96252117  1
  Fe  Fe11  1  0.90653632  0.09346368  0.25720035  1
  Mn  Mn12  1  0.89903766  0.10096234  0.73637714  1
  Mn  Mn13  1  0.70063830  0.29936170  0.24684549  1
  Mn  Mn14  1  0.59859371  0.40140629  0.98969344  1
  Mn  Mn15  1  0.80759422  0.19240578  0.03369249  1
  Ni  Ni16  1  0.10773570  0.89226430  0.78345706  1
  Ni  Ni17  1  0.48457654  0.51542346  0.77181027  1
  Ni  Ni18  1  0.40119163  0.59880837  0.48931775  1
  Ni  Ni19  1  0.20233828  0.79766172  0.03843877  1
