# generated using pymatgen
data_MnCrFeCoNi
_symmetry_space_group_name_H-M   'P 1'
_cell_length_a   8.93311083
_cell_length_b   8.93311082
_cell_length_c   7.08269131
_cell_angle_alpha   89.38425690
_cell_angle_beta   90.61574311
_cell_angle_gamma   157.14729283
_symmetry_Int_Tables_number   1
_chemical_formula_structural   MnCrFeCoNi
_chemical_formula_sum   'Mn4 Cr4 Fe4 Co4 Ni4'
_cell_volume   219.49064385
_cell_formula_units_Z   4
loop_
 _symmetry_equiv_pos_site_id
 _symmetry_equiv_pos_as_xyz
  1  'x, y, z'
loop_
 _atom_site_type_symbol
 _atom_site_label
 _atom_site_symmetry_multiplicity
 _atom_site_fract_x
 _atom_site_fract_y
 _atom_site_fract_z
 _atom_site_occupancy
  Co  Co0  1  0.10062955  0.89937045  0.25299569  1
  Co  Co1  1  0.29969251  0.70030749  0.24994768  1
  Co  Co2  1  0.00232999  0.99767001  0.49905065  1
  Co  Co3  1  0.79997059  0.20002941  0.50117790  1
  Cr  Cr4  1  0.30200237  0.69799763  0.74379148  1
  Cr  Cr5  1  0.70091480  0.29908520  0.74427367  1
  Cr  Cr6  1  0.59564638  0.40435362  0.49782075  1
  Cr  Cr7  1  0.50135773  0.49864227  0.24109225  1
  Fe  Fe8  1  0.20182728  0.79817272  0.49542955  1
  Fe  Fe9  1  0.39920104  0.60079896  0.00544069  1
  Fe  Fe10  1  -0.00204432  0.00204432  -0.00026167  1
  Fe  Fe11  1  0.89944234  0.10055766  0.25409017  1
  Mn  Mn12  1  0.89974252  0.10025748  0.74692594  1
  Mn  Mn13  1  0.69999111  0.30000889  0.25623978  1
  Mn  Mn14  1  0.59935834  0.40064166  0.00544142  1
  Mn  Mn15  1  0.80008752  0.19991248  0.00900524  1
  Ni  Ni16  1  0.10030325  0.89969675  0.75147195  1
  Ni  Ni17  1  0.49971285  0.50028715  0.74911837  1
  Ni  Ni18  1  0.39987509  0.60012491  0.49442940  1
  Ni  Ni19  1  0.19995910  0.80004090  0.00251906  1
