# generated using pymatgen
data_MnFeCoNiIr
_symmetry_space_group_name_H-M   'P 1'
_cell_length_a   11.04211339
_cell_length_b   11.04211338
_cell_length_c   5.33581108
_cell_angle_alpha   90.59883602
_cell_angle_beta   89.40116397
_cell_angle_gamma   158.02799407
_symmetry_Int_Tables_number   1
_chemical_formula_structural   MnFeCoNiIr
_chemical_formula_sum   'Mn4 Fe4 Co4 Ni4 Ir4'
_cell_volume   243.40533338
_cell_formula_units_Z   4
loop_
 _symmetry_equiv_pos_site_id
 _symmetry_equiv_pos_as_xyz
  1  'x, y, z'
loop_
 _atom_site_type_symbol
 _atom_site_label
 _atom_site_symmetry_multiplicity
 _atom_site_fract_x
 _atom_site_fract_y
 _atom_site_fract_z
 _atom_site_occupancy
  Co  Co0  1  0.09736310  0.90263690  0.24205708  1
  Co  Co1  1  0.28753694  0.71246306  0.26541749  1
  Co  Co2  1  0.01093041  0.98906959  0.51299626  1
  Co  Co3  1  0.81323628  0.18676372  0.48418953  1
  Ir  Ir4  1  0.29091972  0.70908028  0.75625381  1
  Ir  Ir5  1  0.71094041  0.28905959  0.74765721  1
  Ir  Ir6  1  0.59907717  0.40092283  0.49849494  1
  Ir  Ir7  1  0.48905079  0.51094921  0.25349027  1
  Fe  Fe8  1  0.19183338  0.80816662  0.49845102  1
  Fe  Fe9  1  0.39010651  0.60989349  0.00612602  1
  Fe  Fe10  1  0.00708223  0.99291777  0.98906114  1
  Fe  Fe11  1  0.91375358  0.08624642  0.25385946  1
  Mn  Mn12  1  0.90863848  0.09136152  0.73391676  1
  Mn  Mn13  1  0.71033603  0.28966397  0.24595979  1
  Mn  Mn14  1  0.59894364  0.40105636  0.99094863  1
  Mn  Mn15  1  0.81504732  0.18495268  0.00981506  1
  Ni  Ni16  1  0.10057534  0.89942466  0.76251841  1
  Ni  Ni17  1  0.48737270  0.51262730  0.74372329  1
  Ni  Ni18  1  0.38643469  0.61356531  0.48993601  1
  Ni  Ni19  1  0.19082128  0.80917872  0.01512780  1
