# generated using pymatgen
data_MnFeCoNiMo
_symmetry_space_group_name_H-M   'P 1'
_cell_length_a   10.45017744
_cell_length_b   10.45017744
_cell_length_c   5.88003713
_cell_angle_alpha   89.77375207
_cell_angle_beta   90.22624791
_cell_angle_gamma   157.46848811
_symmetry_Int_Tables_number   1
_chemical_formula_structural   MnFeCoNiMo
_chemical_formula_sum   'Mn4 Fe4 Co4 Ni4 Mo4'
_cell_volume   246.05927460
_cell_formula_units_Z   4
loop_
 _symmetry_equiv_pos_site_id
 _symmetry_equiv_pos_as_xyz
  1  'x, y, z'
loop_
 _atom_site_type_symbol
 _atom_site_label
 _atom_site_symmetry_multiplicity
 _atom_site_fract_x
 _atom_site_fract_y
 _atom_site_fract_z
 _atom_site_occupancy
  Co  Co0  1  0.09648187  0.90351813  0.24201638  1
  Co  Co1  1  0.30112436  0.69887564  0.25062023  1
  Co  Co2  1  0.99946968  0.00053032  0.50793120  1
  Co  Co3  1  0.80451191  0.19548809  0.47946282  1
  Mo  Mo4  1  0.30061639  0.69938361  0.75124839  1
  Mo  Mo5  1  0.70031936  0.29968064  0.74838122  1
  Mo  Mo6  1  0.59582268  0.40417732  0.50218310  1
  Mo  Mo7  1  0.49833382  0.50166618  0.24799359  1
  Fe  Fe8  1  0.20141008  0.79858992  0.48691988  1
  Fe  Fe9  1  0.39698218  0.60301782  0.01038935  1
  Fe  Fe10  1  0.00174660  0.99825340  0.97642461  1
  Fe  Fe11  1  0.90193993  0.09806007  0.23795948  1
  Mn  Mn12  1  0.89926885  0.10073115  0.74515718  1
  Mn  Mn13  1  0.70256485  0.29743515  0.25706196  1
  Mn  Mn14  1  0.59857780  0.40142220  0.00260119  1
  Mn  Mn15  1  0.79943486  0.20056514  0.00307177  1
  Ni  Ni16  1  0.10803375  0.89196625  0.76025186  1
  Ni  Ni17  1  0.49443315  0.50556685  0.76369717  1
  Ni  Ni18  1  0.39920317  0.60079683  0.49615406  1
  Ni  Ni19  1  0.19972470  0.80027530  0.03047458  1
