# generated using pymatgen
data_MnFeCoNiPd
_symmetry_space_group_name_H-M   'P 1'
_cell_length_a   11.06211106
_cell_length_b   11.06211106
_cell_length_c   5.40826147
_cell_angle_alpha   90.57550430
_cell_angle_beta   89.42449571
_cell_angle_gamma   158.42597744
_symmetry_Int_Tables_number   1
_chemical_formula_structural   MnFeCoNiPd
_chemical_formula_sum   'Mn4 Fe4 Co4 Ni4 Pd4'
_cell_volume   243.33699080
_cell_formula_units_Z   4
loop_
 _symmetry_equiv_pos_site_id
 _symmetry_equiv_pos_as_xyz
  1  'x, y, z'
loop_
 _atom_site_type_symbol
 _atom_site_label
 _atom_site_symmetry_multiplicity
 _atom_site_fract_x
 _atom_site_fract_y
 _atom_site_fract_z
 _atom_site_occupancy
  Co  Co0  1  0.09088599  0.90911401  0.22751577  1
  Co  Co1  1  0.28658612  0.71341388  0.25715599  1
  Co  Co2  1  0.00824523  0.99175477  0.51770034  1
  Co  Co3  1  0.81584224  0.18415776  0.46397297  1
  Pd  Pd4  1  0.29234978  0.70765022  0.74605248  1
  Pd  Pd5  1  0.71146124  0.28853876  0.75010973  1
  Pd  Pd6  1  0.59913585  0.40086415  0.51912762  1
  Pd  Pd7  1  0.49694069  0.50305931  0.23376111  1
  Fe  Fe8  1  0.18438734  0.81561266  0.48588168  1
  Fe  Fe9  1  0.38902946  0.61097054  0.01890341  1
  Fe  Fe10  1  0.00241834  0.99758166  0.96798149  1
  Fe  Fe11  1  0.91661056  0.08338944  0.25434683  1
  Mn  Mn12  1  0.90577420  0.09422580  0.74168195  1
  Mn  Mn13  1  0.70815858  0.29184142  0.25409792  1
  Mn  Mn14  1  0.61353991  0.38646009  0.02846184  1
  Mn  Mn15  1  0.81813494  0.18186506  0.01336393  1
  Ni  Ni16  1  0.09868678  0.90131322  0.78413148  1
  Ni  Ni17  1  0.48323833  0.51676167  0.73859309  1
  Ni  Ni18  1  0.38805379  0.61194621  0.47756961  1
  Ni  Ni19  1  0.19052062  0.80947938  0.01959078  1
