# generated using pymatgen
data_MnFeCoNiRh
_symmetry_space_group_name_H-M   'P 1'
_cell_length_a   10.93263137
_cell_length_b   10.93263137
_cell_length_c   5.36403673
_cell_angle_alpha   90.58770791
_cell_angle_beta   89.41229209
_cell_angle_gamma   158.01820951
_symmetry_Int_Tables_number   1
_chemical_formula_structural   MnFeCoNiRh
_chemical_formula_sum   'Mn4 Fe4 Co4 Ni4 Rh4'
_cell_volume   239.96675477
_cell_formula_units_Z   4
loop_
 _symmetry_equiv_pos_site_id
 _symmetry_equiv_pos_as_xyz
  1  'x, y, z'
loop_
 _atom_site_type_symbol
 _atom_site_label
 _atom_site_symmetry_multiplicity
 _atom_site_fract_x
 _atom_site_fract_y
 _atom_site_fract_z
 _atom_site_occupancy
  Co  Co0  1  0.09016871  0.90983129  0.23767404  1
  Co  Co1  1  0.28747022  0.71252978  0.26374367  1
  Co  Co2  1  0.00568789  0.99431211  0.51855534  1
  Co  Co3  1  0.81290605  0.18709395  0.47942593  1
  Rh  Rh4  1  0.29144254  0.70855746  0.75547821  1
  Rh  Rh5  1  0.71108610  0.28891390  0.75255099  1
  Rh  Rh6  1  0.60594060  0.39405940  0.49526856  1
  Rh  Rh7  1  0.49616357  0.50383643  0.24770970  1
  Fe  Fe8  1  0.18783444  0.81216556  0.48556747  1
  Fe  Fe9  1  0.39256496  0.60743504  0.00053496  1
  Fe  Fe10  1  0.00107864  0.99892136  0.98312098  1
  Fe  Fe11  1  0.91124199  0.08875801  0.25407656  1
  Mn  Mn12  1  0.90811364  0.09188636  0.74061373  1
  Mn  Mn13  1  0.71304033  0.28695967  0.25232327  1
  Mn  Mn14  1  0.60821438  0.39178562  0.00329819  1
  Mn  Mn15  1  0.81145855  0.18854145  0.01533224  1
  Ni  Ni16  1  0.09706847  0.90293153  0.76589515  1
  Ni  Ni17  1  0.49130063  0.50869937  0.74105793  1
  Ni  Ni18  1  0.38793373  0.61206627  0.48526753  1
  Ni  Ni19  1  0.18928455  0.81071545  0.02250556  1
