# generated using pymatgen
data_MnFeCoNiRu
_symmetry_space_group_name_H-M   'P 1'
_cell_length_a   10.91257531
_cell_length_b   10.91257531
_cell_length_c   5.35868516
_cell_angle_alpha   90.41404507
_cell_angle_beta   89.58595495
_cell_angle_gamma   158.15591343
_symmetry_Int_Tables_number   1
_chemical_formula_structural   MnFeCoNiRu
_chemical_formula_sum   'Mn4 Fe4 Co4 Ni4 Ru4'
_cell_volume   237.43231563
_cell_formula_units_Z   4
loop_
 _symmetry_equiv_pos_site_id
 _symmetry_equiv_pos_as_xyz
  1  'x, y, z'
loop_
 _atom_site_type_symbol
 _atom_site_label
 _atom_site_symmetry_multiplicity
 _atom_site_fract_x
 _atom_site_fract_y
 _atom_site_fract_z
 _atom_site_occupancy
  Co  Co0  1  0.08762221  0.91237779  0.22898725  1
  Co  Co1  1  0.28729191  0.71270809  0.26222591  1
  Co  Co2  1  0.00207709  -0.00207709  0.50943689  1
  Co  Co3  1  0.81392100  0.18607900  0.47972923  1
  Ru  Ru4  1  0.28760879  0.71239121  0.74145812  1
  Ru  Ru5  1  0.71006653  0.28993347  0.75435341  1
  Ru  Ru6  1  0.60834400  0.39165600  0.49378237  1
  Ru  Ru7  1  0.50316659  0.49683341  0.24296109  1
  Fe  Fe8  1  0.18358396  0.81641604  0.49162554  1
  Fe  Fe9  1  0.39649192  0.60350808  0.00829448  1
  Fe  Fe10  1  0.99778853  0.00221147  0.98172998  1
  Fe  Fe11  1  0.91098168  0.08901832  0.24989379  1
  Mn  Mn12  1  0.90288578  0.09711422  0.74393636  1
  Mn  Mn13  1  0.71349586  0.28650414  0.26060394  1
  Mn  Mn14  1  0.61412413  0.38587587  0.01477951  1
  Mn  Mn15  1  0.81378347  0.18621653  0.00565067  1
  Ni  Ni16  1  0.09345450  0.90654550  0.77205301  1
  Ni  Ni17  1  0.49457286  0.50542714  0.74219409  1
  Ni  Ni18  1  0.39086326  0.60913674  0.49538356  1
  Ni  Ni19  1  0.18787591  0.81212409  0.02092081  1
