# generated using pymatgen
data_TaMnFeCoNi
_symmetry_space_group_name_H-M   'P 1'
_cell_length_a   9.92573215
_cell_length_b   9.92573215
_cell_length_c   7.69006606
_cell_angle_alpha   90.70555803
_cell_angle_beta   89.29444196
_cell_angle_gamma   160.40555196
_symmetry_Int_Tables_number   1
_chemical_formula_structural   TaMnFeCoNi
_chemical_formula_sum   'Ta4 Mn4 Fe4 Co4 Ni4'
_cell_volume   254.05800816
_cell_formula_units_Z   4
loop_
 _symmetry_equiv_pos_site_id
 _symmetry_equiv_pos_as_xyz
  1  'x, y, z'
loop_
 _atom_site_type_symbol
 _atom_site_label
 _atom_site_symmetry_multiplicity
 _atom_site_fract_x
 _atom_site_fract_y
 _atom_site_fract_z
 _atom_site_occupancy
  Co  Co0  1  0.10049787  0.89950213  0.25077009  1
  Co  Co1  1  0.29880995  0.70119005  0.25295871  1
  Co  Co2  1  0.99713086  0.00286914  0.49873543  1
  Co  Co3  1  0.79757446  0.20242554  0.49352452  1
  Ta  Ta4  1  0.31207943  0.68792057  0.74466330  1
  Ta  Ta5  1  0.69852885  0.30147115  0.75582892  1
  Ta  Ta6  1  0.59504494  0.40495506  0.50311786  1
  Ta  Ta7  1  0.49320605  0.50679395  0.24713937  1
  Fe  Fe8  1  0.20420956  0.79579044  0.49202125  1
  Fe  Fe9  1  0.40308786  0.59691214  0.99825645  1
  Fe  Fe10  1  0.00127225  0.99872775  0.99102180  1
  Fe  Fe11  1  0.89004159  0.10995841  0.25056078  1
  Mn  Mn12  1  0.91187816  0.08812184  0.73457019  1
  Mn  Mn13  1  0.70039586  0.29960414  0.25365797  1
  Mn  Mn14  1  0.59886776  0.40113224  0.00935848  1
  Mn  Mn15  1  0.80091957  0.19908043  0.00697470  1
  Ni  Ni16  1  0.09898128  0.90101872  0.76596832  1
  Ni  Ni17  1  0.50264882  0.49735118  0.75417788  1
  Ni  Ni18  1  0.39707905  0.60292095  0.48386917  1
  Ni  Ni19  1  0.19774582  0.80225418  0.01282481  1
