# generated using pymatgen
data_TiMnFeCoNi
_symmetry_space_group_name_H-M   'P 1'
_cell_length_a   11.08190123
_cell_length_b   11.08190123
_cell_length_c   5.38102060
_cell_angle_alpha   91.37111035
_cell_angle_beta   88.62888967
_cell_angle_gamma   158.42315750
_symmetry_Int_Tables_number   1
_chemical_formula_structural   TiMnFeCoNi
_chemical_formula_sum   'Ti4 Mn4 Fe4 Co4 Ni4'
_cell_volume   242.94921844
_cell_formula_units_Z   4
loop_
 _symmetry_equiv_pos_site_id
 _symmetry_equiv_pos_as_xyz
  1  'x, y, z'
loop_
 _atom_site_type_symbol
 _atom_site_label
 _atom_site_symmetry_multiplicity
 _atom_site_fract_x
 _atom_site_fract_y
 _atom_site_fract_z
 _atom_site_occupancy
  Co  Co0  1  0.10035294  0.89964706  0.24405327  1
  Co  Co1  1  0.28977622  0.71022378  0.24084588  1
  Co  Co2  1  0.01022655  0.98977345  0.50935028  1
  Co  Co3  1  0.80995158  0.19004842  0.51300070  1
  Ti  Ti4  1  0.29650743  0.70349257  0.75940209  1
  Ti  Ti5  1  0.70326820  0.29673180  0.74962404  1
  Ti  Ti6  1  0.59313644  0.40686356  0.49773934  1
  Ti  Ti7  1  0.48599297  0.51400703  0.25047389  1
  Fe  Fe8  1  0.19540323  0.80459677  0.48506014  1
  Fe  Fe9  1  0.39105714  0.60894286  0.00661856  1
  Fe  Fe10  1  0.00590578  0.99409422  0.97415667  1
  Fe  Fe11  1  0.91115488  0.08884512  0.25237229  1
  Mn  Mn12  1  0.91016503  0.08983497  0.73575755  1
  Mn  Mn13  1  0.71499660  0.28500340  0.24506511  1
  Mn  Mn14  1  0.59108421  0.40891579  0.99162428  1
  Mn  Mn15  1  0.81807324  0.18192676  0.04348263  1
  Ni  Ni16  1  0.10705728  0.89294272  0.75667488  1
  Ni  Ni17  1  0.48614962  0.51385038  0.74800212  1
  Ni  Ni18  1  0.38610585  0.61389415  0.48754109  1
  Ni  Ni19  1  0.19363481  0.80636519  0.00915521  1
