# generated using pymatgen
data_MnVFeCoNi
_symmetry_space_group_name_H-M   'P 1'
_cell_length_a   9.11841105
_cell_length_b   9.11841105
_cell_length_c   7.15797956
_cell_angle_alpha   89.52439171
_cell_angle_beta   90.47560830
_cell_angle_gamma   157.67987020
_symmetry_Int_Tables_number   1
_chemical_formula_structural   MnVFeCoNi
_chemical_formula_sum   'Mn4 V4 Fe4 Co4 Ni4'
_cell_volume   226.01990747
_cell_formula_units_Z   4
loop_
 _symmetry_equiv_pos_site_id
 _symmetry_equiv_pos_as_xyz
  1  'x, y, z'
loop_
 _atom_site_type_symbol
 _atom_site_label
 _atom_site_symmetry_multiplicity
 _atom_site_fract_x
 _atom_site_fract_y
 _atom_site_fract_z
 _atom_site_occupancy
  Co  Co0  1  0.10133530  0.89866470  0.24680756  1
  Co  Co1  1  0.30210578  0.69789422  0.24964346  1
  Co  Co2  1  0.00098938  0.99901062  0.50073667  1
  Co  Co3  1  0.80076859  0.19923141  0.49830520  1
  V  V4  1  0.30501262  0.69498738  0.74428530  1
  V  V5  1  0.69672322  0.30327678  0.75528829  1
  V  V6  1  0.59521784  0.40478216  0.49794144  1
  V  V7  1  0.49865481  0.50134519  0.24125369  1
  Fe  Fe8  1  0.20180403  0.79819597  0.49176806  1
  Fe  Fe9  1  0.39522673  0.60477327  0.00077414  1
  Fe  Fe10  1  0.00033362  -0.00033362  0.99322423  1
  Fe  Fe11  1  0.89959079  0.10040921  0.25102702  1
  Mn  Mn12  1  0.90340914  0.09659086  0.74724339  1
  Mn  Mn13  1  0.70076066  0.29923934  0.25099499  1
  Mn  Mn14  1  0.59624744  0.40375256  0.00784251  1
  Mn  Mn15  1  0.80132711  0.19867289  0.01475972  1
  Ni  Ni16  1  0.09972957  0.90027043  0.75636008  1
  Ni  Ni17  1  0.50059938  0.49940062  0.75195389  1
  Ni  Ni18  1  0.40080265  0.59919735  0.49531009  1
  Ni  Ni19  1  0.19936136  0.80063864  0.00448025  1
