# generated using pymatgen
data_MnFeCoNiW
_symmetry_space_group_name_H-M   'P 1'
_cell_length_a   10.50682508
_cell_length_b   10.50682509
_cell_length_c   5.87341303
_cell_angle_alpha   89.91516672
_cell_angle_beta   90.08483328
_cell_angle_gamma   157.62992989
_symmetry_Int_Tables_number   1
_chemical_formula_structural   MnFeCoNiW
_chemical_formula_sum   'Mn4 Fe4 Co4 Ni4 W4'
_cell_volume   246.76719123
_cell_formula_units_Z   4
loop_
 _symmetry_equiv_pos_site_id
 _symmetry_equiv_pos_as_xyz
  1  'x, y, z'
loop_
 _atom_site_type_symbol
 _atom_site_label
 _atom_site_symmetry_multiplicity
 _atom_site_fract_x
 _atom_site_fract_y
 _atom_site_fract_z
 _atom_site_occupancy
  Co  Co0  1  0.09696440  0.90303560  0.24331272  1
  Co  Co1  1  0.30100098  0.69899902  0.24614856  1
  Co  Co2  1  0.00628188  0.99371812  0.52363388  1
  Co  Co3  1  0.80410006  0.19589994  0.48339883  1
  W  W4  1  0.30059458  0.69940542  0.75216473  1
  W  W5  1  0.69985591  0.30014409  0.75675786  1
  W  W6  1  0.59513783  0.40486217  0.50258616  1
  W  W7  1  0.49505114  0.50494886  0.24269427  1
  Fe  Fe8  1  0.20246758  0.79753242  0.48744540  1
  Fe  Fe9  1  0.39675954  0.60324046  0.00903345  1
  Fe  Fe10  1  0.00448910  0.99551090  0.97327090  1
  Fe  Fe11  1  0.90361359  0.09638641  0.24308878  1
  Mn  Mn12  1  0.90296308  0.09703692  0.74709641  1
  Mn  Mn13  1  0.70028579  0.29971421  0.25633469  1
  Mn  Mn14  1  0.59368308  0.40631692  -0.00341110  1
  Mn  Mn15  1  0.80008402  0.19991598  0.00340810  1
  Ni  Ni16  1  0.11131642  0.88868358  0.76324544  1
  Ni  Ni17  1  0.49037187  0.50962813  0.74639476  1
  Ni  Ni18  1  0.39421771  0.60578229  0.49200365  1
  Ni  Ni19  1  0.20076146  0.79923854  0.03139251  1
