# generated using pymatgen
data_MnZnFeCoNi
_symmetry_space_group_name_H-M   'P 1'
_cell_length_a   9.11799278
_cell_length_b   9.11799278
_cell_length_c   7.27971343
_cell_angle_alpha   90.39443137
_cell_angle_beta   89.60556862
_cell_angle_gamma   156.83934546
_symmetry_Int_Tables_number   1
_chemical_formula_structural   MnZnFeCoNi
_chemical_formula_sum   'Mn4 Zn4 Fe4 Co4 Ni4'
_cell_volume   238.03331386
_cell_formula_units_Z   4
loop_
 _symmetry_equiv_pos_site_id
 _symmetry_equiv_pos_as_xyz
  1  'x, y, z'
loop_
 _atom_site_type_symbol
 _atom_site_label
 _atom_site_symmetry_multiplicity
 _atom_site_fract_x
 _atom_site_fract_y
 _atom_site_fract_z
 _atom_site_occupancy
  Co  Co0  1  0.09923146  0.90076854  0.24795748  1
  Co  Co1  1  0.30278124  0.69721876  0.25505003  1
  Co  Co2  1  0.00189351  0.99810649  0.49798306  1
  Co  Co3  1  0.79659557  0.20340443  0.48972705  1
  Zn  Zn4  1  0.30158748  0.69841252  0.74520181  1
  Zn  Zn5  1  0.69941210  0.30058790  0.75293969  1
  Zn  Zn6  1  0.59935084  0.40064916  0.50500025  1
  Zn  Zn7  1  0.49899491  0.50100509  0.25583258  1
  Fe  Fe8  1  0.20287760  0.79712240  0.48297255  1
  Fe  Fe9  1  0.40242515  0.59757485  0.00208497  1
  Fe  Fe10  1  0.99385713  0.00614287  0.00514838  1
  Fe  Fe11  1  0.89862656  0.10137344  0.26969181  1
  Mn  Mn12  1  0.90366525  0.09633475  0.73243963  1
  Mn  Mn13  1  0.70046837  0.29953163  0.23913929  1
  Mn  Mn14  1  0.59844449  0.40155551  0.00182891  1
  Mn  Mn15  1  0.80331431  0.19668569  0.01195954  1
  Ni  Ni16  1  0.09780901  0.90219099  0.75426697  1
  Ni  Ni17  1  0.49801224  0.50198776  0.74871499  1
  Ni  Ni18  1  0.40029829  0.59970171  0.49802585  1
  Ni  Ni19  1  0.20035449  0.79964551  0.00403517  1
