# generated using pymatgen
data_ZrMnFeCoNi
_symmetry_space_group_name_H-M   'P 1'
_cell_length_a   11.07054778
_cell_length_b   11.07054778
_cell_length_c   6.23766000
_cell_angle_alpha   91.94971185
_cell_angle_beta   88.05028816
_cell_angle_gamma   159.01443310
_symmetry_Int_Tables_number   1
_chemical_formula_structural   ZrMnFeCoNi
_chemical_formula_sum   'Zr4 Mn4 Fe4 Co4 Ni4'
_cell_volume   273.61748405
_cell_formula_units_Z   4
loop_
 _symmetry_equiv_pos_site_id
 _symmetry_equiv_pos_as_xyz
  1  'x, y, z'
loop_
 _atom_site_type_symbol
 _atom_site_label
 _atom_site_symmetry_multiplicity
 _atom_site_fract_x
 _atom_site_fract_y
 _atom_site_fract_z
 _atom_site_occupancy
  Co  Co0  1  0.09481694  0.90518306  0.22785636  1
  Co  Co1  1  0.30004085  0.69995915  0.26836992  1
  Co  Co2  1  0.98979881  0.01020119  0.48175499  1
  Co  Co3  1  0.80216363  0.19783637  0.47886249  1
  Zr  Zr4  1  0.30765242  0.69234758  0.75365663  1
  Zr  Zr5  1  0.70401431  0.29598569  0.76637718  1
  Zr  Zr6  1  0.58529251  0.41470749  0.53661788  1
  Zr  Zr7  1  0.49334299  0.50665701  0.18764727  1
  Fe  Fe8  1  0.19728598  0.80271402  0.48335570  1
  Fe  Fe9  1  0.39118840  0.60881160  0.02349917  1
  Fe  Fe10  1  0.02063652  0.97936348  0.86894850  1
  Fe  Fe11  1  0.89627159  0.10372841  0.24886212  1
  Mn  Mn12  1  0.90249233  0.09750767  0.75323232  1
  Mn  Mn13  1  0.69959531  0.30040469  0.28028534  1
  Mn  Mn14  1  0.60358308  0.39641692  0.02256643  1
  Mn  Mn15  1  0.80297823  0.19702177  0.04323121  1
  Ni  Ni16  1  0.12593820  0.87406180  0.80647380  1
  Ni  Ni17  1  0.47462424  0.52537576  0.73886457  1
  Ni  Ni18  1  0.39940335  0.60059665  0.47008000  1
  Ni  Ni19  1  0.20888031  0.79111969  0.05945810  1
