# generated using pymatgen
data_Al3BN4
_symmetry_space_group_name_H-M   'P 1'
_cell_length_a   7.96506683
_cell_length_b   7.40438067
_cell_length_c   4.96689937
_cell_angle_alpha   104.14770595
_cell_angle_beta   101.79215758
_cell_angle_gamma   97.45047693
_symmetry_Int_Tables_number   1
_chemical_formula_structural   Al3BN4
_chemical_formula_sum   'Al12 B4 N16'
_cell_volume   273.02651592
_cell_formula_units_Z   4
loop_
 _symmetry_equiv_pos_site_id
 _symmetry_equiv_pos_as_xyz
  1  'x, y, z'
loop_
 _atom_site_type_symbol
 _atom_site_label
 _atom_site_symmetry_multiplicity
 _atom_site_fract_x
 _atom_site_fract_y
 _atom_site_fract_z
 _atom_site_occupancy
  B  B0  1  0.43480093  0.15046463  0.00896548  1
  B  B1  1  0.34174890  0.20776459  0.42576438  1
  B  B2  1  0.21164346  0.00155665  0.62011979  1
  B  B3  1  0.95522771  0.07652485  0.40897718  1
  N  N4  1  0.48421536  0.74786347  0.24506170  1
  N  N5  1  0.25264072  0.00983644  0.34385879  1
  N  N6  1  0.34928750  0.31222960  0.20289837  1
  N  N7  1  0.12902724  0.60062100  0.25551231  1
  N  N8  1  0.85059470  0.88402760  0.25337300  1
  N  N9  1  0.97127579  0.21995297  0.24887551  1
  N  N10  1  0.73959307  0.50115824  0.24486176  1
  N  N11  1  0.59495869  0.13458080  0.21729395  1
  N  N12  1  0.34053119  0.94731396  0.82416040  1
  N  N13  1  0.48154488  0.25402409  0.72174984  1
  N  N14  1  0.24754212  0.51448177  0.76359215  1
  N  N15  1  0.98134961  0.74216401  0.78152868  1
  N  N16  1  0.72023487  0.99033476  0.75372770  1
  N  N17  1  0.07445114  0.10140765  0.69711204  1
  N  N18  1  0.87342806  0.38399427  0.77587664  1
  N  N19  1  0.59168632  0.62255675  0.72075780  1
  Al  Al20  1  0.11948363  0.35842302  0.96812913  1
  Al  Al21  1  0.23237500  0.76550890  0.02107563  1
  Al  Al22  1  0.96074014  0.99005108  0.93881253  1
  Al  Al23  1  0.76097795  0.24988295  0.00595362  1
  Al  Al24  1  0.89949227  0.63099998  0.05182995  1
  Al  Al25  1  0.62202541  0.87654359  0.00790372  1
  Al  Al26  1  0.48798177  0.50672981  0.97007192  1
  Al  Al27  1  0.35503273  0.59408664  0.47646244  1
  Al  Al28  1  0.66169182  0.38164657  0.51965226  1
  Al  Al29  1  0.01502514  0.49897543  0.52488200  1
  Al  Al30  1  0.74279343  0.74732156  0.50473053  1
  Al  Al31  1  0.51659850  0.99697237  0.49642880  1
