# generated using pymatgen
data_AlN
_symmetry_space_group_name_H-M   'P 1'
_cell_length_a   7.61159189
_cell_length_b   7.61198271
_cell_length_c   4.98229492
_cell_angle_alpha   102.58621934
_cell_angle_beta   102.59220400
_cell_angle_gamma   98.22785814
_symmetry_Int_Tables_number   1
_chemical_formula_structural   AlN
_chemical_formula_sum   'Al16 N16'
_cell_volume   269.39482000
_cell_formula_units_Z   16
loop_
 _symmetry_equiv_pos_site_id
 _symmetry_equiv_pos_as_xyz
  1  'x, y, z'
loop_
 _atom_site_type_symbol
 _atom_site_label
 _atom_site_symmetry_multiplicity
 _atom_site_fract_x
 _atom_site_fract_y
 _atom_site_fract_z
 _atom_site_occupancy
  Al  Al0  1  0.37497640  0.12499856  0.99975551  1
  Al  Al1  1  0.25002475  0.24992683  0.49973701  1
  Al  Al2  1  0.12502621  0.87504246  0.50032364  1
  Al  Al3  1  0.87509163  0.12498449  0.50004116  1
  Al  Al4  1  0.12503442  0.37498515  0.00008408  1
  Al  Al5  1  0.24997207  0.75009406  0.00032107  1
  Al  Al6  1  0.99996374  0.99995800  0.00011109  1
  Al  Al7  1  0.75005950  0.24997860  0.99986835  1
  Al  Al8  1  0.87495884  0.62502639  0.00025463  1
  Al  Al9  1  0.62492021  0.87504799  0.99996174  1
  Al  Al10  1  0.49988086  0.49992884  0.99965392  1
  Al  Al11  1  0.37498272  0.62505653  0.50002218  1
  Al  Al12  1  0.62502575  0.37496954  0.49969604  1
  Al  Al13  1  0.00010662  0.50002170  0.50032334  1
  Al  Al14  1  0.74993434  0.74995624  0.49999456  1
  Al  Al15  1  0.50003538  0.00002972  0.49986749  1
  N  N16  1  0.49995094  0.75000439  0.24997505  1
  N  N17  1  0.25000684  0.00001402  0.25001784  1
  N  N18  1  0.37498570  0.37497203  0.24976048  1
  N  N19  1  0.12500778  0.62504970  0.25029261  1
  N  N20  1  0.87496045  0.87498941  0.25012218  1
  N  N21  1  0.00005174  0.24999001  0.25001189  1
  N  N22  1  0.74999236  0.49996800  0.24996109  1
  N  N23  1  0.62505919  0.12502286  0.24986032  1
  N  N24  1  0.37499856  0.87506711  0.75008092  1
  N  N25  1  0.50002823  0.24999677  0.74971805  1
  N  N26  1  0.24999376  0.49999263  0.75002256  1
  N  N27  1  0.99996580  0.74997779  0.75025656  1
  N  N28  1  0.75000229  -0.00000484  0.74996578  1
  N  N29  1  0.12500264  0.12496275  0.74995068  1
  N  N30  1  0.87506408  0.37500156  0.75006323  1
  N  N31  1  0.62493622  0.62499072  0.74992500  1
