# generated using pymatgen
data_Al3SiN4
_symmetry_space_group_name_H-M   'P 1'
_cell_length_a   8.11218595
_cell_length_b   7.86269808
_cell_length_c   5.89088542
_cell_angle_alpha   106.97741013
_cell_angle_beta   108.07745050
_cell_angle_gamma   83.92595644
_symmetry_Int_Tables_number   1
_chemical_formula_structural   Al3SiN4
_chemical_formula_sum   'Al12 Si4 N16'
_cell_volume   341.58051150
_cell_formula_units_Z   4
loop_
 _symmetry_equiv_pos_site_id
 _symmetry_equiv_pos_as_xyz
  1  'x, y, z'
loop_
 _atom_site_type_symbol
 _atom_site_label
 _atom_site_symmetry_multiplicity
 _atom_site_fract_x
 _atom_site_fract_y
 _atom_site_fract_z
 _atom_site_occupancy
  Si  Si0  1  0.31802350  0.13326491  0.76632548  1
  Si  Si1  1  0.20630116  0.16515795  0.36756617  1
  Si  Si2  1  0.04476068  0.84300145  0.33081948  1
  Si  Si3  1  0.92170158  0.21182668  0.58019023  1
  N  N4  1  0.52646392  0.83068404  0.38932267  1
  N  N5  1  0.13624433  0.94200809  0.14940648  1
  N  N6  1  0.31300510  0.30357144  0.28475960  1
  N  N7  1  0.18498636  0.67232938  0.40363702  1
  N  N8  1  0.82829111  0.76920092  0.15421922  1
  N  N9  1  0.01049101  0.30294275  0.39906700  1
  N  N10  1  0.65216132  0.45656541  0.18925620  1
  N  N11  1  0.70372076  0.15672945  0.39977162  1
  N  N12  1  0.42578833  0.92654918  0.88755319  1
  N  N13  1  0.50108839  0.22434216  0.75154651  1
  N  N14  1  0.27637383  0.57100691  0.90236510  1
  N  N15  1  0.91045207  0.68109846  0.65370040  1
  N  N16  1  0.78738416  0.04786862  0.90557634  1
  N  N17  1  0.01773757  0.00429746  0.59479807  1
  N  N18  1  0.93294072  0.37095965  0.87616191  1
  N  N19  1  0.57559429  0.55639771  0.67683128  1
  Al  Al20  1  0.19021788  0.40056240  0.02430202  1
  Al  Al21  1  0.34074057  0.81436226  0.08468632  1
  Al  Al22  1  0.97239755  0.91648696  0.83052510  1
  Al  Al23  1  0.82199269  0.29104259  0.08137934  1
  Al  Al24  1  0.81224379  0.59355954  0.84376601  1
  Al  Al25  1  0.67087438  0.97220707  0.08482343  1
  Al  Al26  1  0.49079756  0.45831973  0.87659398  1
  Al  Al27  1  0.42076420  0.74118439  0.58557764  1
  Al  Al28  1  0.54817211  0.35953043  0.38431309  1
  Al  Al29  1  0.10770958  0.54711382  0.58098876  1
  Al  Al30  1  0.72880024  0.68272286  0.36067158  1
  Al  Al31  1  0.62177924  0.05310534  0.59949877  1
