# generated using pymatgen
data_TiAl3N4
_symmetry_space_group_name_H-M   'P 1'
_cell_length_a   7.73302551
_cell_length_b   7.73397912
_cell_length_c   5.04833083
_cell_angle_alpha   102.35507395
_cell_angle_beta   102.52052622
_cell_angle_gamma   98.40185949
_symmetry_Int_Tables_number   1
_chemical_formula_structural   TiAl3N4
_chemical_formula_sum   'Ti4 Al12 N16'
_cell_volume   281.99197621
_cell_formula_units_Z   4
loop_
 _symmetry_equiv_pos_site_id
 _symmetry_equiv_pos_as_xyz
  1  'x, y, z'
loop_
 _atom_site_type_symbol
 _atom_site_label
 _atom_site_symmetry_multiplicity
 _atom_site_fract_x
 _atom_site_fract_y
 _atom_site_fract_z
 _atom_site_occupancy
  Ti  Ti0  1  0.36720021  0.12444209  0.99017156  1
  Ti  Ti1  1  0.24786407  0.24012918  0.49862485  1
  Ti  Ti2  1  0.12937184  0.88901281  0.50769759  1
  Ti  Ti3  1  0.88615551  0.12410670  0.49961005  1
  N  N4  1  0.50151695  0.75158592  0.24963115  1
  N  N5  1  0.25018527  0.98923089  0.24009372  1
  N  N6  1  0.38043979  0.38650761  0.24949997  1
  N  N7  1  0.12463959  0.61907930  0.24862214  1
  N  N8  1  0.86703387  0.86719346  0.23839435  1
  N  N9  1  0.99545958  0.25312239  0.23794248  1
  N  N10  1  0.75062466  0.50095129  0.25054376  1
  N  N11  1  0.62567975  0.12608671  0.25141323  1
  N  N12  1  0.38240034  0.86711709  0.74667346  1
  N  N13  1  0.51109574  0.25218603  0.74560944  1
  N  N14  1  0.24933088  0.50538857  0.75547443  1
  N  N15  1  0.99605781  0.74851409  0.75687226  1
  N  N16  1  0.74680933  0.99510884  0.75444968  1
  N  N17  1  0.11828980  0.13417650  0.77683691  1
  N  N18  1  0.87537085  0.38239246  0.75275688  1
  N  N19  1  0.62399029  0.62278662  0.74836756  1
  Al  Al20  1  0.12518449  0.38163920  0.00509009  1
  Al  Al21  1  0.24978449  0.74582559  0.00135940  1
  Al  Al22  1  0.99205692  0.99421705  0.99621994  1
  Al  Al23  1  0.74932344  0.25120434  0.99957492  1
  Al  Al24  1  0.87418975  0.62315934  0.00083951  1
  Al  Al25  1  0.62285626  0.87342893  0.99893881  1
  Al  Al26  1  0.50155263  0.50320102  0.99904334  1
  Al  Al27  1  0.37468158  0.62376296  0.49966121  1
  Al  Al28  1  0.62659940  0.37584208  0.49780070  1
  Al  Al29  1  0.00054763  0.50493429  0.50261718  1
  Al  Al30  1  0.74679019  0.74562955  0.50060759  1
  Al  Al31  1  0.50691711  0.99803713  0.49896183  1
