# generated using pymatgen
data_Al3VN4
_symmetry_space_group_name_H-M   'P 1'
_cell_length_a   7.64750402
_cell_length_b   7.65197874
_cell_length_c   5.02334573
_cell_angle_alpha   102.13287205
_cell_angle_beta   103.08747276
_cell_angle_gamma   98.36992492
_symmetry_Int_Tables_number   1
_chemical_formula_structural   Al3VN4
_chemical_formula_sum   'Al12 V4 N16'
_cell_volume   274.10869117
_cell_formula_units_Z   4
loop_
 _symmetry_equiv_pos_site_id
 _symmetry_equiv_pos_as_xyz
  1  'x, y, z'
loop_
 _atom_site_type_symbol
 _atom_site_label
 _atom_site_symmetry_multiplicity
 _atom_site_fract_x
 _atom_site_fract_y
 _atom_site_fract_z
 _atom_site_occupancy
  V  V0  1  0.35687524  0.12488410  0.97129926  1
  V  V1  1  0.23958079  0.22881957  0.51125188  1
  V  V2  1  0.12978753  0.90373200  0.51723166  1
  V  V3  1  0.89991625  0.12295835  0.51038865  1
  N  N4  1  0.50134337  0.75010309  0.24638721  1
  N  N5  1  0.25207798  0.99222192  0.24001404  1
  N  N6  1  0.37716531  0.38049960  0.24930546  1
  N  N7  1  0.12484286  0.62499210  0.25240529  1
  N  N8  1  0.87059003  0.86964039  0.24037681  1
  N  N9  1  0.99756422  0.25113110  0.23933227  1
  N  N10  1  0.75021080  0.49949943  0.24790849  1
  N  N11  1  0.62638541  0.12519950  0.24827814  1
  N  N12  1  0.38006581  0.87165911  0.74388950  1
  N  N13  1  0.50717216  0.24762503  0.74238848  1
  N  N14  1  0.24933701  0.50158045  0.75414769  1
  N  N15  1  0.99923558  0.75121079  0.75383759  1
  N  N16  1  0.74899251  0.99591614  0.75040206  1
  N  N17  1  0.11701133  0.13551918  0.78606170  1
  N  N18  1  0.87634421  0.37926119  0.75143466  1
  N  N19  1  0.62434261  0.62325665  0.74763667  1
  Al  Al20  1  0.12669278  0.38546260  0.01264517  1
  Al  Al21  1  0.24951657  0.74848504  0.00026612  1
  Al  Al22  1  0.99170203  0.99350158  0.00286875  1
  Al  Al23  1  0.74942705  0.24785983  0.99890535  1
  Al  Al24  1  0.87486610  0.62334567  0.00140416  1
  Al  Al25  1  0.62270901  0.87654417  -0.00008254  1
  Al  Al26  1  0.50071747  0.50057139  0.99544595  1
  Al  Al27  1  0.37388963  0.62313458  0.49856256  1
  Al  Al28  1  0.62451725  0.37157127  0.49167300  1
  Al  Al29  1  0.00103058  0.50318108  0.50186772  1
  Al  Al30  1  0.74900800  0.74748871  0.49934850  1
  Al  Al31  1  0.50708248  0.99914440  0.49311773  1
