# generated using pymatgen
data_Al3CrN4
_symmetry_space_group_name_H-M   'P 1'
_cell_length_a   7.64803314
_cell_length_b   7.61656614
_cell_length_c   5.01249165
_cell_angle_alpha   102.37382734
_cell_angle_beta   102.72219872
_cell_angle_gamma   98.39413569
_symmetry_Int_Tables_number   1
_chemical_formula_structural   Al3CrN4
_chemical_formula_sum   'Al12 Cr4 N16'
_cell_volume   272.42387898
_cell_formula_units_Z   4
loop_
 _symmetry_equiv_pos_site_id
 _symmetry_equiv_pos_as_xyz
  1  'x, y, z'
loop_
 _atom_site_type_symbol
 _atom_site_label
 _atom_site_symmetry_multiplicity
 _atom_site_fract_x
 _atom_site_fract_y
 _atom_site_fract_z
 _atom_site_occupancy
  Cr  Cr0  1  0.36116566  0.10774176  0.98352099  1
  Cr  Cr1  1  0.21842969  0.22855553  0.50105552  1
  Cr  Cr2  1  0.14417978  0.90604393  0.52507668  1
  Cr  Cr3  1  0.89977416  0.13262291  0.49878958  1
  N  N4  1  0.50001547  0.75082588  0.24872413  1
  N  N5  1  0.25147893  0.99910102  0.24687362  1
  N  N6  1  0.37425359  0.37666981  0.24987934  1
  N  N7  1  0.12623323  0.62743232  0.25340047  1
  N  N8  1  0.87573070  0.87357581  0.24491666  1
  N  N9  1  -0.00454987  0.25294384  0.23336500  1
  N  N10  1  0.74971783  0.50063668  0.24854306  1
  N  N11  1  0.62871095  0.12528100  0.24936616  1
  N  N12  1  0.38126819  0.86629709  0.74848459  1
  N  N13  1  0.50005366  0.24584500  0.74482465  1
  N  N14  1  0.24706007  0.49879848  0.75044183  1
  N  N15  1  0.00245755  0.75426156  0.75315704  1
  N  N16  1  0.75033069  0.99893528  0.74953057  1
  N  N17  1  0.12072005  0.13213645  0.77813668  1
  N  N18  1  0.87673739  0.37947946  0.75030557  1
  N  N19  1  0.62591343  0.62347652  0.74977427  1
  Al  Al20  1  0.12843120  0.38244074  0.00904824  1
  Al  Al21  1  0.24941619  0.74699172  0.00095517  1
  Al  Al22  1  0.99093537  0.99465295  -0.00169300  1
  Al  Al23  1  0.74707983  0.24843401  0.99491768  1
  Al  Al24  1  0.87584067  0.62521356  0.00345402  1
  Al  Al25  1  0.62544653  0.87484841  0.00266928  1
  Al  Al26  1  0.49804443  0.49400079  0.99254405  1
  Al  Al27  1  0.37515657  0.62053121  0.49873153  1
  Al  Al28  1  0.62054579  0.37119854  0.49167014  1
  Al  Al29  1  -0.00039656  0.50639694  0.50161861  1
  Al  Al30  1  0.75165191  0.75180411  0.49869133  1
  Al  Al31  1  0.50816696  0.00282672  0.49922654  1
