# generated using pymatgen
data_MnAl3N4
_symmetry_space_group_name_H-M   'P 1'
_cell_length_a   7.62843405
_cell_length_b   7.61526095
_cell_length_c   4.99915668
_cell_angle_alpha   102.58634738
_cell_angle_beta   102.59128027
_cell_angle_gamma   98.25503013
_symmetry_Int_Tables_number   1
_chemical_formula_structural   MnAl3N4
_chemical_formula_sum   'Mn4 Al12 N16'
_cell_volume   270.99449434
_cell_formula_units_Z   4
loop_
 _symmetry_equiv_pos_site_id
 _symmetry_equiv_pos_as_xyz
  1  'x, y, z'
loop_
 _atom_site_type_symbol
 _atom_site_label
 _atom_site_symmetry_multiplicity
 _atom_site_fract_x
 _atom_site_fract_y
 _atom_site_fract_z
 _atom_site_occupancy
  Mn  Mn0  1  0.37301123  0.13233454  0.98221967  1
  Mn  Mn1  1  0.24392005  0.23155403  0.50893813  1
  Mn  Mn2  1  0.12382158  0.90838045  0.52130151  1
  Mn  Mn3  1  0.88619854  0.12008990  0.49115388  1
  N  N4  1  0.50104810  0.74914835  0.24778399  1
  N  N5  1  0.25009733  0.99380684  0.24401745  1
  N  N6  1  0.37355890  0.37502181  0.25421199  1
  N  N7  1  0.12399049  0.62436399  0.25132817  1
  N  N8  1  0.87264433  0.87024940  0.24487172  1
  N  N9  1  0.00339551  0.24848162  0.24828056  1
  N  N10  1  0.74947369  0.49687407  0.24679855  1
  N  N11  1  0.62610692  0.12488463  0.24958165  1
  N  N12  1  0.37483352  0.87383658  0.74526921  1
  N  N13  1  0.50283393  0.24742310  0.74211428  1
  N  N14  1  0.25075126  0.50010335  0.75393800  1
  N  N15  1  -0.00045839  0.75147341  0.75115025  1
  N  N16  1  0.75083142  0.99898460  0.75237569  1
  N  N17  1  0.12040846  0.13221764  0.77115932  1
  N  N18  1  0.87616446  0.37614131  0.75065867  1
  N  N19  1  0.62452892  0.62427603  0.74853739  1
  Al  Al20  1  0.12684352  0.37995078  0.00620187  1
  Al  Al21  1  0.24877548  0.75222826  -0.00057574  1
  Al  Al22  1  0.99816027  0.99550958  0.00831971  1
  Al  Al23  1  0.75183825  0.24681250  0.99514055  1
  Al  Al24  1  0.87584634  0.62362151  0.00392637  1
  Al  Al25  1  0.62156055  0.87638182  -0.00056573  1
  Al  Al26  1  0.49951988  0.49937962  0.99292873  1
  Al  Al27  1  0.37148457  0.62438836  0.49836562  1
  Al  Al28  1  0.62524309  0.37212191  0.49229602  1
  Al  Al29  1  0.00291244  0.50099616  0.50310288  1
  Al  Al30  1  0.75144982  0.75090219  0.50128708  1
  Al  Al31  1  0.49920551  -0.00193834  0.49388254  1
