# generated using pymatgen
data_Al3FeN4
_symmetry_space_group_name_H-M   'P 1'
_cell_length_a   7.59644706
_cell_length_b   7.58058172
_cell_length_c   4.97358632
_cell_angle_alpha   102.50232498
_cell_angle_beta   102.58071321
_cell_angle_gamma   98.24482237
_symmetry_Int_Tables_number   1
_chemical_formula_structural   Al3FeN4
_chemical_formula_sum   'Al12 Fe4 N16'
_cell_volume   267.38846594
_cell_formula_units_Z   4
loop_
 _symmetry_equiv_pos_site_id
 _symmetry_equiv_pos_as_xyz
  1  'x, y, z'
loop_
 _atom_site_type_symbol
 _atom_site_label
 _atom_site_symmetry_multiplicity
 _atom_site_fract_x
 _atom_site_fract_y
 _atom_site_fract_z
 _atom_site_occupancy
  Fe  Fe0  1  0.37236824  0.13723455  0.00284850  1
  Fe  Fe1  1  0.25113641  0.23739267  0.48608469  1
  Fe  Fe2  1  0.12243421  0.90228682  0.52319688  1
  Fe  Fe3  1  0.88322593  0.12081338  0.50040465  1
  N  N4  1  0.50000819  0.74807923  0.24916211  1
  N  N5  1  0.24819064  0.99189494  0.24233262  1
  N  N6  1  0.37406321  0.37565163  0.25236356  1
  N  N7  1  0.12448219  0.62309057  0.24836279  1
  N  N8  1  0.87323462  0.87185571  0.25092384  1
  N  N9  1  0.00147311  0.24637986  0.24089800  1
  N  N10  1  0.74956389  0.49697562  0.24733717  1
  N  N11  1  0.62565820  0.12513688  0.25341134  1
  N  N12  1  0.37393766  0.87607362  0.75072264  1
  N  N13  1  0.50185724  0.24735877  0.74769436  1
  N  N14  1  0.25111070  0.49836279  0.74857583  1
  N  N15  1  -0.00065871  0.75059194  0.75121299  1
  N  N16  1  0.74988013  0.99773058  0.75385375  1
  N  N17  1  0.12748768  0.13318347  0.74970736  1
  N  N18  1  0.87624279  0.37529818  0.74951638  1
  N  N19  1  0.62499081  0.62476079  0.74994993  1
  Al  Al20  1  0.12565222  0.37782992  -0.00179738  1
  Al  Al21  1  0.24837703  0.75277899  -0.00021394  1
  Al  Al22  1  0.99690358  0.99558840  0.00964489  1
  Al  Al23  1  0.75109338  0.24562093  0.99692441  1
  Al  Al24  1  0.87640745  0.62394616  0.00656769  1
  Al  Al25  1  0.62041109  0.87762975  0.00434899  1
  Al  Al26  1  0.50011640  0.49803515  0.98977323  1
  Al  Al27  1  0.37107322  0.62706720  0.49885570  1
  Al  Al28  1  0.62768465  0.37270291  0.49555616  1
  Al  Al29  1  0.00297167  0.49769555  0.49860898  1
  Al  Al30  1  0.75089010  0.75075626  0.50291555  1
  Al  Al31  1  0.49773204  0.00019679  0.50025634  1
