# generated using pymatgen
data_Al3CoN4
_symmetry_space_group_name_H-M   'P 1'
_cell_length_a   7.57614544
_cell_length_b   7.57973619
_cell_length_c   4.96207527
_cell_angle_alpha   102.54852408
_cell_angle_beta   102.63472723
_cell_angle_gamma   98.22219212
_symmetry_Int_Tables_number   1
_chemical_formula_structural   Al3CoN4
_chemical_formula_sum   'Al12 Co4 N16'
_cell_volume   265.92007960
_cell_formula_units_Z   4
loop_
 _symmetry_equiv_pos_site_id
 _symmetry_equiv_pos_as_xyz
  1  'x, y, z'
loop_
 _atom_site_type_symbol
 _atom_site_label
 _atom_site_symmetry_multiplicity
 _atom_site_fract_x
 _atom_site_fract_y
 _atom_site_fract_z
 _atom_site_occupancy
  Co  Co0  1  0.37137149  0.12608732  0.99349340  1
  Co  Co1  1  0.24915607  0.24819135  0.49978705  1
  Co  Co2  1  0.12238233  0.87735174  0.50437826  1
  Co  Co3  1  0.87556849  0.12383479  0.49913401  1
  N  N4  1  0.49894260  0.75039954  0.25083712  1
  N  N5  1  0.25013408  0.00358440  0.25025082  1
  N  N6  1  0.37431063  0.37418448  0.24443060  1
  N  N7  1  0.12424217  0.62339198  0.24731909  1
  N  N8  1  0.87503015  0.87572172  0.25536723  1
  N  N9  1  0.00237384  0.24824265  0.24849846  1
  N  N10  1  0.75078142  0.49934428  0.24995565  1
  N  N11  1  0.62785239  0.12478728  0.25327123  1
  N  N12  1  0.37360256  0.87537945  0.75052471  1
  N  N13  1  0.49988975  0.25050153  0.74898286  1
  N  N14  1  0.24980026  0.50093867  0.74948702  1
  N  N15  1  0.00030310  0.75140691  0.75426379  1
  N  N16  1  0.75093484  0.00065144  0.75420780  1
  N  N17  1  0.13382401  0.12150276  0.73838344  1
  N  N18  1  0.87592875  0.37366737  0.75096289  1
  N  N19  1  0.62521704  0.62585057  0.75094395  1
  Al  Al20  1  0.12778383  0.37277153  0.99450742  1
  Al  Al21  1  0.24870330  0.75443298  0.00183646  1
  Al  Al22  1  0.00091440  0.99977063  0.00986578  1
  Al  Al23  1  0.74991721  0.24694306  0.99860409  1
  Al  Al24  1  0.87534790  0.62380788  0.00586143  1
  Al  Al25  1  0.62194042  0.87726928  0.00601153  1
  Al  Al26  1  0.49881723  0.49792909  0.99362939  1
  Al  Al27  1  0.37194651  0.62510611  0.49769811  1
  Al  Al28  1  0.62367712  0.37222540  0.49217695  1
  Al  Al29  1  0.00182042  0.49765094  0.49983385  1
  Al  Al30  1  0.75177269  0.75366790  0.50468951  1
  Al  Al31  1  0.49571297  0.00340490  0.50080610  1
