# generated using pymatgen
data_Al3NiN4
_symmetry_space_group_name_H-M   'P 1'
_cell_length_a   7.62971201
_cell_length_b   7.60267465
_cell_length_c   5.02162659
_cell_angle_alpha   103.56127805
_cell_angle_beta   103.16086239
_cell_angle_gamma   97.49300410
_symmetry_Int_Tables_number   1
_chemical_formula_structural   Al3NiN4
_chemical_formula_sum   'Al12 Ni4 N16'
_cell_volume   270.47962811
_cell_formula_units_Z   4
loop_
 _symmetry_equiv_pos_site_id
 _symmetry_equiv_pos_as_xyz
  1  'x, y, z'
loop_
 _atom_site_type_symbol
 _atom_site_label
 _atom_site_symmetry_multiplicity
 _atom_site_fract_x
 _atom_site_fract_y
 _atom_site_fract_z
 _atom_site_occupancy
  Ni  Ni0  1  0.37234944  0.12720030  0.99782382  1
  Ni  Ni1  1  0.24822211  0.24485032  0.49886050  1
  Ni  Ni2  1  0.12597188  0.88058817  0.50613082  1
  Ni  Ni3  1  0.87742068  0.12440648  0.50363978  1
  N  N4  1  0.49900563  0.75187861  0.24914775  1
  N  N5  1  0.25131912  0.00335564  0.24887551  1
  N  N6  1  0.37932782  0.38189518  0.23599565  1
  N  N7  1  0.12601692  0.62483050  0.25254713  1
  N  N8  1  0.87497832  0.87607198  0.25579561  1
  N  N9  1  0.00260836  0.24870954  0.25174997  1
  N  N10  1  0.75212687  0.49951133  0.24896738  1
  N  N11  1  0.62430884  0.12473221  0.24283163  1
  N  N12  1  0.37337072  0.87452345  0.74932075  1
  N  N13  1  0.50554673  0.25445688  0.73391953  1
  N  N14  1  0.24923665  0.50042764  0.74749246  1
  N  N15  1  0.99365121  0.74276750  0.76606104  1
  N  N16  1  0.74944328  0.99966399  0.75226438  1
  N  N17  1  0.12311143  0.12015260  0.76237390  1
  N  N18  1  0.87695086  0.37177116  0.75206125  1
  N  N19  1  0.62383788  0.62766970  0.75087396  1
  Al  Al20  1  0.13074589  0.37298696  0.99358162  1
  Al  Al21  1  0.24678812  0.75284688  0.99972305  1
  Al  Al22  1  -0.00020885  0.99693831  0.00745573  1
  Al  Al23  1  0.74833910  0.24638586  0.99679049  1
  Al  Al24  1  0.87610958  0.62343824  0.00777792  1
  Al  Al25  1  0.62134743  0.87694357  0.00713658  1
  Al  Al26  1  0.49930724  0.49804983  0.98766569  1
  Al  Al27  1  0.37245788  0.62462236  0.49643509  1
  Al  Al28  1  0.62286642  0.37254454  0.48788001  1
  Al  Al29  1  0.00210022  0.49936616  0.50313743  1
  Al  Al30  1  0.75315489  0.75236111  0.50652610  1
  Al  Al31  1  0.49818733  0.00405301  0.49915747  1
