# generated using pymatgen
data_YAl3N4
_symmetry_space_group_name_H-M   'P 1'
_cell_length_a   8.27882036
_cell_length_b   8.47053694
_cell_length_c   6.00024769
_cell_angle_alpha   105.27920749
_cell_angle_beta   107.75421300
_cell_angle_gamma   88.87067166
_symmetry_Int_Tables_number   1
_chemical_formula_structural   YAl3N4
_chemical_formula_sum   'Y4 Al12 N16'
_cell_volume   385.72574429
_cell_formula_units_Z   4
loop_
 _symmetry_equiv_pos_site_id
 _symmetry_equiv_pos_as_xyz
  1  'x, y, z'
loop_
 _atom_site_type_symbol
 _atom_site_label
 _atom_site_symmetry_multiplicity
 _atom_site_fract_x
 _atom_site_fract_y
 _atom_site_fract_z
 _atom_site_occupancy
  Y  Y0  1  0.44182187  0.15816278  0.12311383  1
  Y  Y1  1  0.17177477  0.22199955  0.40565253  1
  Y  Y2  1  0.20871508  0.89654791  0.62736876  1
  Y  Y3  1  0.82135136  0.03530739  0.37327605  1
  N  N4  1  0.48253329  0.67576425  0.10130297  1
  N  N5  1  0.35873090  0.02086251  0.35932244  1
  N  N6  1  0.27299924  0.36884694  0.11831303  1
  N  N7  1  0.18002407  0.69731794  0.30032097  1
  N  N8  1  0.81764629  0.81624392  0.06721597  1
  N  N9  1  0.93300556  0.17496248  0.07578395  1
  N  N10  1  0.85004744  0.55951750  0.34771711  1
  N  N11  1  0.68368084  0.26156488  0.37390716  1
  N  N12  1  0.47787100  0.94514585  0.85117774  1
  N  N13  1  0.57217470  0.30374671  0.85125455  1
  N  N14  1  0.22408515  0.47908200  0.63668052  1
  N  N15  1  0.09149796  0.80105035  0.85736568  1
  N  N16  1  0.72553036  0.91231015  0.59434615  1
  N  N17  1  0.07250636  0.12692089  0.64597750  1
  N  N18  1  0.91465022  0.47012925  0.84593052  1
  N  N19  1  0.55509450  0.59236169  0.59348901  1
  Al  Al20  1  0.04526681  0.28955942  0.90747849  1
  Al  Al21  1  0.28527539  0.80304548  0.13905312  1
  Al  Al22  1  0.90285071  0.93158945  0.88956457  1
  Al  Al23  1  0.76890011  0.33563077  0.15660633  1
  Al  Al24  1  0.94685848  0.64160510  0.13894088  1
  Al  Al25  1  0.58597494  0.75614040  0.89684657  1
  Al  Al26  1  0.38845014  0.46050746  0.92376415  1
  Al  Al27  1  0.31797178  0.54183809  0.41346820  1
  Al  Al28  1  0.68010664  0.40900794  0.66296611  1
  Al  Al29  1  0.01847591  0.57673615  0.66591807  1
  Al  Al30  1  0.65754226  0.68810831  0.40459932  1
  Al  Al31  1  0.54658588  0.04838648  0.65127776  1
