# generated using pymatgen
data_ZrAl3N4
_symmetry_space_group_name_H-M   'P 1'
_cell_length_a   7.99671217
_cell_length_b   7.93423744
_cell_length_c   5.17652551
_cell_angle_alpha   102.60844243
_cell_angle_beta   102.12413270
_cell_angle_gamma   98.49214908
_symmetry_Int_Tables_number   1
_chemical_formula_structural   ZrAl3N4
_chemical_formula_sum   'Zr4 Al12 N16'
_cell_volume   306.85604791
_cell_formula_units_Z   4
loop_
 _symmetry_equiv_pos_site_id
 _symmetry_equiv_pos_as_xyz
  1  'x, y, z'
loop_
 _atom_site_type_symbol
 _atom_site_label
 _atom_site_symmetry_multiplicity
 _atom_site_fract_x
 _atom_site_fract_y
 _atom_site_fract_z
 _atom_site_occupancy
  Zr  Zr0  1  0.37487129  0.12659713  0.99341235  1
  Zr  Zr1  1  0.24928515  0.24400884  0.49737983  1
  Zr  Zr2  1  0.12802026  0.88181492  0.50566146  1
  Zr  Zr3  1  0.87845072  0.12545828  0.49923857  1
  N  N4  1  0.50583315  0.75184895  0.24790289  1
  N  N5  1  0.25558046  0.97641953  0.23007074  1
  N  N6  1  0.38900919  0.39909126  0.25299156  1
  N  N7  1  0.12559033  0.61232759  0.24610283  1
  N  N8  1  0.85931360  0.85885160  0.22181461  1
  N  N9  1  0.98837322  0.26319975  0.23080698  1
  N  N10  1  0.75038336  0.50387384  0.25314101  1
  N  N11  1  0.62657707  0.12764923  0.25202098  1
  N  N12  1  0.39169674  0.85797716  0.74205190  1
  N  N13  1  0.52476502  0.25856912  0.74544711  1
  N  N14  1  0.24848372  0.51244225  0.76305681  1
  N  N15  1  0.98763365  0.74337933  0.75796870  1
  N  N16  1  0.74220048  0.98727846  0.75447853  1
  N  N17  1  0.11276099  0.13881471  0.79810018  1
  N  N18  1  0.87424395  0.39106745  0.75716101  1
  N  N19  1  0.62281738  0.62035339  0.74707745  1
  Al  Al20  1  0.11970244  0.38453948  0.00564946  1
  Al  Al21  1  0.25473388  0.74072690  0.00818554  1
  Al  Al22  1  0.98470565  0.98880064  0.98758826  1
  Al  Al23  1  0.75049808  0.26136219  0.00539711  1
  Al  Al24  1  0.87062033  0.62318898  0.99475077  1
  Al  Al25  1  0.62330327  0.86542547  0.98869906  1
  Al  Al26  1  0.50524636  0.50978601  0.00750411  1
  Al  Al27  1  0.37774966  0.62274882  0.50252873  1
  Al  Al28  1  0.62900380  0.38287404  0.50627064  1
  Al  Al29  1  0.99787015  0.50835542  0.50312230  1
  Al  Al30  1  0.74171647  0.74014424  0.49730391  1
  Al  Al31  1  0.50896016  0.99102503  0.49711462  1
