# generated using pymatgen
data_NbAl3N4
_symmetry_space_group_name_H-M   'P 1'
_cell_length_a   7.89743395
_cell_length_b   7.90666121
_cell_length_c   5.10273125
_cell_angle_alpha   102.23035640
_cell_angle_beta   102.30011987
_cell_angle_gamma   98.79577530
_symmetry_Int_Tables_number   1
_chemical_formula_structural   NbAl3N4
_chemical_formula_sum   'Nb4 Al12 N16'
_cell_volume   297.63118254
_cell_formula_units_Z   4
loop_
 _symmetry_equiv_pos_site_id
 _symmetry_equiv_pos_as_xyz
  1  'x, y, z'
loop_
 _atom_site_type_symbol
 _atom_site_label
 _atom_site_symmetry_multiplicity
 _atom_site_fract_x
 _atom_site_fract_y
 _atom_site_fract_z
 _atom_site_occupancy
  Nb  Nb0  1  0.36439375  0.12610662  0.99095966  1
  Nb  Nb1  1  0.24164101  0.23408151  0.50265065  1
  Nb  Nb2  1  0.12878887  0.89656247  0.50991960  1
  Nb  Nb3  1  0.89663060  0.12290070  0.49587253  1
  N  N4  1  0.50283829  0.74735944  0.24557923  1
  N  N5  1  0.27683789  0.98126754  0.24711936  1
  N  N6  1  0.38191353  0.38997874  0.25270136  1
  N  N7  1  0.12668428  0.62493886  0.25019908  1
  N  N8  1  0.85536444  0.85311300  0.22601480  1
  N  N9  1  0.99036586  0.28363075  0.24242229  1
  N  N10  1  0.74468674  0.50168181  0.24608054  1
  N  N11  1  0.63142222  0.12667395  0.24833030  1
  N  N12  1  0.38720911  0.86432636  0.74392210  1
  N  N13  1  0.51802908  0.24834749  0.74089064  1
  N  N14  1  0.24974987  0.50751029  0.76124495  1
  N  N15  1  0.99439837  0.74780623  0.75831234  1
  N  N16  1  0.74615525  0.98803055  0.75121861  1
  N  N17  1  0.11094049  0.13720191  0.80627817  1
  N  N18  1  0.87492650  0.38717496  0.75105622  1
  N  N19  1  0.62109222  0.61919508  0.74335191  1
  Al  Al20  1  0.12058039  0.39039029  0.01069378  1
  Al  Al21  1  0.25553955  0.74372585  0.00690518  1
  Al  Al22  1  0.97844601  0.98133298  0.98757477  1
  Al  Al23  1  0.75125429  0.25856369  0.00345149  1
  Al  Al24  1  0.87027152  0.62103814  0.99577089  1
  Al  Al25  1  0.62109498  0.86789494  0.99196480  1
  Al  Al26  1  0.50208376  0.50595578  0.00155821  1
  Al  Al27  1  0.37530778  0.62277352  0.50007680  1
  Al  Al28  1  0.62869795  0.37754972  0.49990458  1
  Al  Al29  1  0.99815341  0.50909382  0.50148326  1
  Al  Al30  1  0.74006386  0.73948084  0.48954854  1
  Al  Al31  1  0.51443811  0.99431217  0.49694336  1
