# generated using pymatgen
data_Al3MoN4
_symmetry_space_group_name_H-M   'P 1'
_cell_length_a   7.74932718
_cell_length_b   7.81723995
_cell_length_c   5.08206427
_cell_angle_alpha   102.69886039
_cell_angle_beta   101.60121470
_cell_angle_gamma   97.90868515
_symmetry_Int_Tables_number   1
_chemical_formula_structural   Al3MoN4
_chemical_formula_sum   'Al12 Mo4 N16'
_cell_volume   288.82378990
_cell_formula_units_Z   4
loop_
 _symmetry_equiv_pos_site_id
 _symmetry_equiv_pos_as_xyz
  1  'x, y, z'
loop_
 _atom_site_type_symbol
 _atom_site_label
 _atom_site_symmetry_multiplicity
 _atom_site_fract_x
 _atom_site_fract_y
 _atom_site_fract_z
 _atom_site_occupancy
  Mo  Mo0  1  0.36832172  0.12992579  0.04401218  1
  Mo  Mo1  1  0.24536200  0.24048253  0.47859292  1
  Mo  Mo2  1  0.11511282  0.89431539  0.50425913  1
  Mo  Mo3  1  0.90264614  0.11922004  0.49603855  1
  N  N4  1  0.50126474  0.75230515  0.25350778  1
  N  N5  1  0.24073490  0.96549049  0.22078273  1
  N  N6  1  0.38436918  0.39698148  0.25734014  1
  N  N7  1  0.12374524  0.62284463  0.24929477  1
  N  N8  1  0.85675242  0.85564668  0.22501529  1
  N  N9  1  0.99421914  0.26201125  0.22212567  1
  N  N10  1  0.74954763  0.49981543  0.24731757  1
  N  N11  1  0.63351811  0.12765759  0.26050639  1
  N  N12  1  0.38284566  0.86904582  0.75356749  1
  N  N13  1  0.51575955  0.25455799  0.75439559  1
  N  N14  1  0.24956181  0.50482211  0.75292630  1
  N  N15  1  0.99028168  0.74477623  0.74989837  1
  N  N16  1  0.74878446  0.99351944  0.75718855  1
  N  N17  1  0.12918119  0.14399326  0.79261887  1
  N  N18  1  0.87875252  0.38471400  0.74746875  1
  N  N19  1  0.62236174  0.62205010  0.74795970  1
  Al  Al20  1  0.12274506  0.38822855  0.99963190  1
  Al  Al21  1  0.25224514  0.74010726  0.99516887  1
  Al  Al22  1  0.98710694  0.98736537  0.99356267  1
  Al  Al23  1  0.75131431  0.25105965  0.99463408  1
  Al  Al24  1  0.87138917  0.62167354  0.99514890  1
  Al  Al25  1  0.62076912  0.87073044  0.00075490  1
  Al  Al26  1  0.50411288  0.50051424  0.99628680  1
  Al  Al27  1  0.37593346  0.62855452  0.50134278  1
  Al  Al28  1  0.63272826  0.37872994  0.50497423  1
  Al  Al29  1  0.99746259  0.50450385  0.49412689  1
  Al  Al30  1  0.74256025  0.74359679  0.49522606  1
  Al  Al31  1  0.50851015  0.00076047  0.51432518  1
