# generated using pymatgen
data_HfAl3N4
_symmetry_space_group_name_H-M   'P 1'
_cell_length_a   7.95568758
_cell_length_b   7.89836631
_cell_length_c   5.15696193
_cell_angle_alpha   102.60521736
_cell_angle_beta   102.17745048
_cell_angle_gamma   98.47809026
_symmetry_Int_Tables_number   1
_chemical_formula_structural   HfAl3N4
_chemical_formula_sum   'Hf4 Al12 N16'
_cell_volume   302.69754852
_cell_formula_units_Z   4
loop_
 _symmetry_equiv_pos_site_id
 _symmetry_equiv_pos_as_xyz
  1  'x, y, z'
loop_
 _atom_site_type_symbol
 _atom_site_label
 _atom_site_symmetry_multiplicity
 _atom_site_fract_x
 _atom_site_fract_y
 _atom_site_fract_z
 _atom_site_occupancy
  Hf  Hf0  1  0.37407107  0.12602703  0.99295989  1
  Hf  Hf1  1  0.24894343  0.24342687  0.49772124  1
  Hf  Hf2  1  0.12798476  0.88279118  0.50554616  1
  Hf  Hf3  1  0.87905132  0.12499992  0.49956477  1
  N  N4  1  0.50484334  0.75146696  0.24823007  1
  N  N5  1  0.25459620  0.97855292  0.23048449  1
  N  N6  1  0.38733201  0.39653478  0.25279804  1
  N  N7  1  0.12522061  0.61386832  0.24663632  1
  N  N8  1  0.86029373  0.85980341  0.22491710  1
  N  N9  1  0.98980086  0.26210855  0.23305951  1
  N  N10  1  0.75026383  0.50324496  0.25255354  1
  N  N11  1  0.62655872  0.12701687  0.25109426  1
  N  N12  1  0.38989150  0.85904004  0.74263030  1
  N  N13  1  0.52227793  0.25782084  0.74523096  1
  N  N14  1  0.24874183  0.51074120  0.76150588  1
  N  N15  1  0.98965858  0.74423609  0.75770317  1
  N  N16  1  0.74318666  0.98937245  0.75466352  1
  N  N17  1  0.11380794  0.13890971  0.79542207  1
  N  N18  1  0.87406297  0.38919169  0.75588700  1
  N  N19  1  0.62318937  0.62102010  0.74717875  1
  Al  Al20  1  0.12098358  0.38410848  0.00638132  1
  Al  Al21  1  0.25363661  0.74142679  0.00615454  1
  Al  Al22  1  0.98758730  0.99061001  0.99079125  1
  Al  Al23  1  0.75045197  0.25942710  0.00404353  1
  Al  Al24  1  0.87131554  0.62307371  0.99563787  1
  Al  Al25  1  0.62334658  0.86676451  0.99021693  1
  Al  Al26  1  0.50462669  0.50881220  0.00631568  1
  Al  Al27  1  0.37746287  0.62301950  0.50182913  1
  Al  Al28  1  0.62865334  0.38198544  0.50521670  1
  Al  Al29  1  0.99809210  0.50769528  0.50271164  1
  Al  Al30  1  0.74227924  0.74080164  0.49783697  1
  Al  Al31  1  0.50778749  0.99210149  0.49707741  1
