# generated using pymatgen
data_TaAl3N4
_symmetry_space_group_name_H-M   'P 1'
_cell_length_a   7.88978089
_cell_length_b   7.90256743
_cell_length_c   5.08182793
_cell_angle_alpha   102.27904083
_cell_angle_beta   102.41233495
_cell_angle_gamma   98.77036955
_symmetry_Int_Tables_number   1
_chemical_formula_structural   TaAl3N4
_chemical_formula_sum   'Ta4 Al12 N16'
_cell_volume   295.77187093
_cell_formula_units_Z   4
loop_
 _symmetry_equiv_pos_site_id
 _symmetry_equiv_pos_as_xyz
  1  'x, y, z'
loop_
 _atom_site_type_symbol
 _atom_site_label
 _atom_site_symmetry_multiplicity
 _atom_site_fract_x
 _atom_site_fract_y
 _atom_site_fract_z
 _atom_site_occupancy
  Ta  Ta0  1  0.36513664  0.12564885  0.98969482  1
  Ta  Ta1  1  0.24124563  0.23369524  0.49823706  1
  Ta  Ta2  1  0.12927860  0.89598881  0.50752518  1
  Ta  Ta3  1  0.89578963  0.12224440  0.48996929  1
  N  N4  1  0.50177869  0.74573625  0.24483368  1
  N  N5  1  0.28310023  0.98113728  0.25057269  1
  N  N6  1  0.38179160  0.38923470  0.25227957  1
  N  N7  1  0.12694191  0.62688856  0.24997463  1
  N  N8  1  0.85162142  0.84841989  0.23209766  1
  N  N9  1  0.99102709  0.29224104  0.24948706  1
  N  N10  1  0.74276241  0.50063279  0.24530487  1
  N  N11  1  0.63179643  0.12600497  0.24558467  1
  N  N12  1  0.38763506  0.86378354  0.74333945  1
  N  N13  1  0.51756190  0.24876401  0.73987898  1
  N  N14  1  0.25002321  0.50674232  0.76020279  1
  N  N15  1  0.99522835  0.74865460  0.75945900  1
  N  N16  1  0.74706695  0.98870151  0.75154935  1
  N  N17  1  0.10984072  0.13850954  0.80668037  1
  N  N18  1  0.87398869  0.38671686  0.75015124  1
  N  N19  1  0.62105743  0.61926268  0.74314169  1
  Al  Al20  1  0.11954711  0.39061772  0.01057656  1
  Al  Al21  1  0.25633685  0.74398351  0.00763008  1
  Al  Al22  1  0.97908310  0.98068465  0.98864213  1
  Al  Al23  1  0.75231789  0.25999076  0.00342831  1
  Al  Al24  1  0.86932961  0.62054927  0.99727398  1
  Al  Al25  1  0.62116379  0.86644049  0.99174064  1
  Al  Al26  1  0.50150415  0.50564965  0.00136714  1
  Al  Al27  1  0.37508575  0.62247014  0.49920239  1
  Al  Al28  1  0.62873118  0.37797753  0.49950488  1
  Al  Al29  1  0.99787082  0.51169212  0.50440531  1
  Al  Al30  1  0.73839201  0.73783707  0.48917239  1
  Al  Al31  1  0.51596515  0.99309927  0.49709214  1
