# generated using pymatgen
data_Al3WN4
_symmetry_space_group_name_H-M   'P 1'
_cell_length_a   7.74594742
_cell_length_b   7.85065793
_cell_length_c   5.07196997
_cell_angle_alpha   102.17975535
_cell_angle_beta   101.71704968
_cell_angle_gamma   97.69658350
_symmetry_Int_Tables_number   1
_chemical_formula_structural   Al3WN4
_chemical_formula_sum   'Al12 W4 N16'
_cell_volume   290.12700772
_cell_formula_units_Z   4
loop_
 _symmetry_equiv_pos_site_id
 _symmetry_equiv_pos_as_xyz
  1  'x, y, z'
loop_
 _atom_site_type_symbol
 _atom_site_label
 _atom_site_symmetry_multiplicity
 _atom_site_fract_x
 _atom_site_fract_y
 _atom_site_fract_z
 _atom_site_occupancy
  W  W0  1  0.36857927  0.13174397  0.04643170  1
  W  W1  1  0.24812852  0.24007678  0.48884486  1
  W  W2  1  0.11763251  0.89773294  0.50140011  1
  W  W3  1  0.90158253  0.11841217  0.49100039  1
  N  N4  1  0.50193446  0.75087202  0.25112715  1
  N  N5  1  0.23965658  0.95194634  0.20046931  1
  N  N6  1  0.38565550  0.39752542  0.26063841  1
  N  N7  1  0.12423185  0.62518080  0.24876445  1
  N  N8  1  0.85190227  0.85037040  0.22555193  1
  N  N9  1  0.99803607  0.27728533  0.23970075  1
  N  N10  1  0.74870779  0.49967654  0.24668498  1
  N  N11  1  0.63409153  0.12874072  0.25904862  1
  N  N12  1  0.38200391  0.86937023  0.74875680  1
  N  N13  1  0.51799713  0.26106857  0.76239843  1
  N  N14  1  0.25158303  0.50210329  0.75395326  1
  N  N15  1  0.98715939  0.74260260  0.74192827  1
  N  N16  1  0.74989966  0.99654741  0.75772680  1
  N  N17  1  0.12113404  0.14232077  0.80642077  1
  N  N18  1  0.87849099  0.38363274  0.74753104  1
  N  N19  1  0.62237939  0.62340049  0.74646862  1
  Al  Al20  1  0.12133744  0.38871306  0.00407359  1
  Al  Al21  1  0.25454252  0.73356598  0.99131021  1
  Al  Al22  1  0.98865470  0.97862643  0.99129352  1
  Al  Al23  1  0.75382415  0.25282908  0.99707822  1
  Al  Al24  1  0.87079663  0.62125704  0.99409518  1
  Al  Al25  1  0.62041589  0.86925502  0.99592313  1
  Al  Al26  1  0.50702106  0.50221290  0.00024380  1
  Al  Al27  1  0.37722712  0.62859717  0.49846839  1
  Al  Al28  1  0.63344002  0.38137575  0.50744651  1
  Al  Al29  1  0.99631561  0.50738905  0.49394431  1
  Al  Al30  1  0.74104709  0.74214051  0.49123881  1
  Al  Al31  1  0.50459134  0.00342843  0.51003770  1
