# generated using pymatgen
data_Al3ReN4
_symmetry_space_group_name_H-M   'P 1'
_cell_length_a   7.78832875
_cell_length_b   7.89160770
_cell_length_c   5.01617740
_cell_angle_alpha   102.80513957
_cell_angle_beta   102.80077488
_cell_angle_gamma   97.33471422
_symmetry_Int_Tables_number   1
_chemical_formula_structural   Al3ReN4
_chemical_formula_sum   'Al12 Re4 N16'
_cell_volume   288.05645644
_cell_formula_units_Z   4
loop_
 _symmetry_equiv_pos_site_id
 _symmetry_equiv_pos_as_xyz
  1  'x, y, z'
loop_
 _atom_site_type_symbol
 _atom_site_label
 _atom_site_symmetry_multiplicity
 _atom_site_fract_x
 _atom_site_fract_y
 _atom_site_fract_z
 _atom_site_occupancy
  Re  Re0  1  0.35703034  0.14005975  0.98025002  1
  Re  Re1  1  0.25619766  0.24175777  0.48042309  1
  Re  Re2  1  0.11802310  0.89704081  0.50987351  1
  Re  Re3  1  0.90299994  0.12392253  0.48766687  1
  N  N4  1  0.50087178  0.74673705  0.24389181  1
  N  N5  1  0.28063826  0.98274277  0.24713527  1
  N  N6  1  0.38078703  0.39614501  0.25087422  1
  N  N7  1  0.12617896  0.63377564  0.25501454  1
  N  N8  1  0.84801743  0.84899949  0.24310859  1
  N  N9  1  0.00553823  0.29199446  0.25488698  1
  N  N10  1  0.74704166  0.49875440  0.24235956  1
  N  N11  1  0.63271072  0.13045506  0.24821492  1
  N  N12  1  0.38260034  0.87426381  0.74518276  1
  N  N13  1  0.52016967  0.25445449  0.74592511  1
  N  N14  1  0.25358895  0.50862366  0.75568293  1
  N  N15  1  0.99227800  0.74021893  0.75679975  1
  N  N16  1  0.74469658  0.99020549  0.75011640  1
  N  N17  1  0.08676934  0.09310238  0.83063975  1
  N  N18  1  0.88058284  0.38308053  0.74755459  1
  N  N19  1  0.62165935  0.62123448  0.74132380  1
  Al  Al20  1  0.12399491  0.38447563  0.99608662  1
  Al  Al21  1  0.25178486  0.74862109  0.00150958  1
  Al  Al22  1  0.97046919  0.96482327  0.01818926  1
  Al  Al23  1  0.75948331  0.24975714  0.99340506  1
  Al  Al24  1  0.87005183  0.61550218  0.99861465  1
  Al  Al25  1  0.61549166  0.87335856  0.99792780  1
  Al  Al26  1  0.50433527  0.50635739  0.99010705  1
  Al  Al27  1  0.37506423  0.63102494  0.49528005  1
  Al  Al28  1  0.63417752  0.37804854  0.49116258  1
  Al  Al29  1  0.00310586  0.51131192  0.50517589  1
  Al  Al30  1  0.74080202  0.74127814  0.49702689  1
  Al  Al31  1  0.51285914  0.99787271  0.49859010  1
