# generated using pymatgen
data_Al3OsN4
_symmetry_space_group_name_H-M   'P 1'
_cell_length_a   7.74507288
_cell_length_b   7.84707920
_cell_length_c   5.09863010
_cell_angle_alpha   102.24875184
_cell_angle_beta   104.03341103
_cell_angle_gamma   98.01296640
_symmetry_Int_Tables_number   1
_chemical_formula_structural   Al3OsN4
_chemical_formula_sum   'Al12 Os4 N16'
_cell_volume   287.76981741
_cell_formula_units_Z   4
loop_
 _symmetry_equiv_pos_site_id
 _symmetry_equiv_pos_as_xyz
  1  'x, y, z'
loop_
 _atom_site_type_symbol
 _atom_site_label
 _atom_site_symmetry_multiplicity
 _atom_site_fract_x
 _atom_site_fract_y
 _atom_site_fract_z
 _atom_site_occupancy
  Os  Os0  1  0.36631326  0.11988002  0.94769184  1
  Os  Os1  1  0.24600014  0.25073773  0.50256077  1
  Os  Os2  1  0.12385998  0.88096624  0.51081957  1
  Os  Os3  1  0.89863704  0.11988573  0.49080286  1
  N  N4  1  0.50210670  0.74905170  0.24722535  1
  N  N5  1  0.26504985  0.99046771  0.23555781  1
  N  N6  1  0.37618581  0.37786357  0.24772335  1
  N  N7  1  0.12711352  0.62988194  0.25385462  1
  N  N8  1  0.86112424  0.85434730  0.23711851  1
  N  N9  1  0.99544688  0.29030379  0.27205558  1
  N  N10  1  0.74391878  0.50118018  0.24398270  1
  N  N11  1  0.62863500  0.12420037  0.23649553  1
  N  N12  1  0.38210105  0.86145822  0.74121041  1
  N  N13  1  0.51779216  0.25277721  0.72892419  1
  N  N14  1  0.25088178  0.51139444  0.76492725  1
  N  N15  1  0.99090526  0.74409881  0.76208178  1
  N  N16  1  0.74817794  0.99272103  0.75082572  1
  N  N17  1  0.09784170  0.14498918  0.85779911  1
  N  N18  1  0.87611570  0.38069302  0.75014698  1
  N  N19  1  0.62191837  0.62062936  0.74301212  1
  Al  Al20  1  0.12483912  0.38874939  0.00985628  1
  Al  Al21  1  0.25389351  0.74945630  0.00318480  1
  Al  Al22  1  0.99520077  0.97712949  0.01547514  1
  Al  Al23  1  0.75780658  0.24778928  0.98949009  1
  Al  Al24  1  0.86731023  0.61580717  0.99607269  1
  Al  Al25  1  0.62227342  0.86916785  0.99397531  1
  Al  Al26  1  0.50097423  0.50075254  0.98826929  1
  Al  Al27  1  0.37783677  0.62263207  0.49682695  1
  Al  Al28  1  0.62902460  0.37267892  0.48262341  1
  Al  Al29  1  0.99904225  0.51225855  0.51368813  1
  Al  Al30  1  0.74424464  0.74668480  0.49864364  1
  Al  Al31  1  0.50742873  0.99936605  0.48707822  1
