# generated using pymatgen
data_Al31OsN32
_symmetry_space_group_name_H-M   'P 1'
_cell_length_a   8.16263987
_cell_length_b   8.16263987
_cell_length_c   8.16263987
_cell_angle_alpha   90.00000000
_cell_angle_beta   90.00000000
_cell_angle_gamma   90.00000000
_symmetry_Int_Tables_number   1
_chemical_formula_structural   Al31OsN32
_chemical_formula_sum   'Al31 Os1 N32'
_cell_volume   543.86599860
_cell_formula_units_Z   1
loop_
 _symmetry_equiv_pos_site_id
 _symmetry_equiv_pos_as_xyz
  1  'x, y, z'
loop_
 _atom_site_type_symbol
 _atom_site_label
 _atom_site_symmetry_multiplicity
 _atom_site_fract_x
 _atom_site_fract_y
 _atom_site_fract_z
 _atom_site_occupancy
  Al  Al0  1  0.00000000  0.00000000  0.00000000  1
  Al  Al1  1  0.00000000  0.24996971  0.24996971  1
  Al  Al2  1  0.24996971  0.00000000  0.24996971  1
  Al  Al3  1  0.24996971  0.24996971  0.00000000  1
  Al  Al4  1  0.00000000  0.00000000  0.50000000  1
  Al  Al5  1  0.00000000  0.24996971  0.75003029  1
  Al  Al6  1  0.24996971  0.00000000  0.75003029  1
  Al  Al7  1  0.24888861  0.24888861  0.50000000  1
  Al  Al8  1  0.00000000  0.50000000  0.00000000  1
  Al  Al9  1  0.00000000  0.75003029  0.24996971  1
  Al  Al10  1  0.24888861  0.50000000  0.24888861  1
  Al  Al11  1  0.24996971  0.75003029  0.00000000  1
  Al  Al12  1  0.00000000  0.50000000  0.50000000  1
  Al  Al13  1  0.00000000  0.75003029  0.75003029  1
  Al  Al14  1  0.24888861  0.50000000  0.75111139  1
  Al  Al15  1  0.24888861  0.75111139  0.50000000  1
  Al  Al16  1  0.50000000  0.00000000  0.00000000  1
  Al  Al17  1  0.50000000  0.24888861  0.24888861  1
  Al  Al18  1  0.75003029  -0.00000000  0.24996971  1
  Al  Al19  1  0.75003029  0.24996971  0.00000000  1
  Al  Al20  1  0.50000000  0.00000000  0.50000000  1
  Al  Al21  1  0.50000000  0.24888861  0.75111139  1
  Al  Al22  1  0.75003029  -0.00000000  0.75003029  1
  Al  Al23  1  0.75111139  0.24888861  0.50000000  1
  Al  Al24  1  0.50000000  0.50000000  0.00000000  1
  Al  Al25  1  0.50000000  0.75111139  0.24888861  1
  Al  Al26  1  0.75111139  0.50000000  0.24888861  1
  Al  Al27  1  0.75003029  0.75003029  0.00000000  1
  Al  Al28  1  0.50000000  0.75111139  0.75111139  1
  Al  Al29  1  0.75111139  0.50000000  0.75111139  1
  Al  Al30  1  0.75111139  0.75111139  0.50000000  1
  N  N31  1  0.25039445  0.25039445  0.25039445  1
  N  N32  1  0.24965048  -0.00000000  0.00000000  1
  N  N33  1  0.00000000  0.24965048  0.00000000  1
  N  N34  1  0.00000000  -0.00000000  0.24965048  1
  N  N35  1  0.25039445  0.25039445  0.74960555  1
  N  N36  1  0.24886627  -0.00000000  0.50000000  1
  N  N37  1  0.00000000  0.24886627  0.50000000  1
  N  N38  1  0.00000000  -0.00000000  0.75034952  1
  N  N39  1  0.25039445  0.74960555  0.25039445  1
  N  N40  1  0.24886627  0.50000000  0.00000000  1
  N  N41  1  0.00000000  0.75034952  0.00000000  1
  N  N42  1  0.00000000  0.50000000  0.24886627  1
  N  N43  1  0.25039445  0.74960555  0.74960555  1
  N  N44  1  0.24023480  0.50000000  0.50000000  1
  N  N45  1  0.00000000  0.75113373  0.50000000  1
  N  N46  1  0.00000000  0.50000000  0.75113373  1
  N  N47  1  0.74960555  0.25039445  0.25039445  1
  N  N48  1  0.75034952  0.00000000  0.00000000  1
  N  N49  1  0.50000000  0.24886627  0.00000000  1
  N  N50  1  0.50000000  -0.00000000  0.24886627  1
  N  N51  1  0.74960555  0.25039445  0.74960555  1
  N  N52  1  0.75113373  0.00000000  0.50000000  1
  N  N53  1  0.50000000  0.24023480  0.50000000  1
  N  N54  1  0.50000000  0.00000000  0.75113373  1
  N  N55  1  0.74960555  0.74960555  0.25039445  1
  N  N56  1  0.75113373  0.50000000  0.00000000  1
  N  N57  1  0.50000000  0.75113373  0.00000000  1
  N  N58  1  0.50000000  0.50000000  0.24023480  1
  N  N59  1  0.74960555  0.74960555  0.74960555  1
  N  N60  1  0.75976520  0.50000000  0.50000000  1
  N  N61  1  0.50000000  0.75976520  0.50000000  1
  N  N62  1  0.50000000  0.50000000  0.75976520  1
  Os  Os63  1  0.50000000  0.50000000  0.50000000  1
