# generated using pymatgen
data_Ti31MnN32
_symmetry_space_group_name_H-M   'P 1'
_cell_length_a   8.49593290
_cell_length_b   8.49593290
_cell_length_c   8.49593290
_cell_angle_alpha   90.00000000
_cell_angle_beta   90.00000000
_cell_angle_gamma   90.00000000
_symmetry_Int_Tables_number   1
_chemical_formula_structural   Ti31MnN32
_chemical_formula_sum   'Ti31 Mn1 N32'
_cell_volume   613.24387781
_cell_formula_units_Z   1
loop_
 _symmetry_equiv_pos_site_id
 _symmetry_equiv_pos_as_xyz
  1  'x, y, z'
loop_
 _atom_site_type_symbol
 _atom_site_label
 _atom_site_symmetry_multiplicity
 _atom_site_fract_x
 _atom_site_fract_y
 _atom_site_fract_z
 _atom_site_occupancy
  Ti  Ti0  1  0.00000000  0.00000000  0.00000000  1
  Ti  Ti1  1  0.00000000  0.25135150  0.25135150  1
  Ti  Ti2  1  0.25135150  0.00000000  0.25135150  1
  Ti  Ti3  1  0.25135150  0.25135150  0.00000000  1
  Ti  Ti4  1  0.00000000  0.00000000  0.50000000  1
  Ti  Ti5  1  0.00000000  0.25135150  0.74864850  1
  Ti  Ti6  1  0.25135150  0.00000000  0.74864850  1
  Ti  Ti7  1  0.25162862  0.25162862  0.50000000  1
  Ti  Ti8  1  0.00000000  0.50000000  0.00000000  1
  Ti  Ti9  1  0.00000000  0.74864850  0.25135150  1
  Ti  Ti10  1  0.25162862  0.50000000  0.25162862  1
  Ti  Ti11  1  0.25135150  0.74864850  0.00000000  1
  Ti  Ti12  1  0.00000000  0.50000000  0.50000000  1
  Ti  Ti13  1  0.00000000  0.74864850  0.74864850  1
  Ti  Ti14  1  0.25162862  0.50000000  0.74837138  1
  Ti  Ti15  1  0.25162862  0.74837138  0.50000000  1
  Ti  Ti16  1  0.50000000  0.00000000  0.00000000  1
  Ti  Ti17  1  0.50000000  0.25162862  0.25162862  1
  Ti  Ti18  1  0.74864850  0.00000000  0.25135150  1
  Ti  Ti19  1  0.74864850  0.25135150  0.00000000  1
  Ti  Ti20  1  0.50000000  0.00000000  0.50000000  1
  Ti  Ti21  1  0.50000000  0.25162862  0.74837138  1
  Ti  Ti22  1  0.74864850  0.00000000  0.74864850  1
  Ti  Ti23  1  0.74837138  0.25162862  0.50000000  1
  Ti  Ti24  1  0.50000000  0.50000000  0.00000000  1
  Ti  Ti25  1  0.50000000  0.74837138  0.25162862  1
  Ti  Ti26  1  0.74837138  0.50000000  0.25162862  1
  Ti  Ti27  1  0.74864850  0.74864850  0.00000000  1
  Ti  Ti28  1  0.50000000  0.74837138  0.74837138  1
  Ti  Ti29  1  0.74837138  0.50000000  0.74837138  1
  Ti  Ti30  1  0.74837138  0.74837138  0.50000000  1
  N  N31  1  0.25012386  0.25012386  0.25012386  1
  N  N32  1  0.25040567  0.00000000  0.00000000  1
  N  N33  1  0.00000000  0.25040567  0.00000000  1
  N  N34  1  0.00000000  0.00000000  0.25040567  1
  N  N35  1  0.25012386  0.25012386  0.74987614  1
  N  N36  1  0.25115043  0.00000000  0.50000000  1
  N  N37  1  0.00000000  0.25115043  0.50000000  1
  N  N38  1  0.00000000  0.00000000  0.74959433  1
  N  N39  1  0.25012386  0.74987614  0.25012386  1
  N  N40  1  0.25115043  0.50000000  0.00000000  1
  N  N41  1  0.00000000  0.74959433  0.00000000  1
  N  N42  1  0.00000000  0.50000000  0.25115043  1
  N  N43  1  0.25012386  0.74987614  0.74987614  1
  N  N44  1  0.25187226  0.50000000  0.50000000  1
  N  N45  1  0.00000000  0.74884957  0.50000000  1
  N  N46  1  0.00000000  0.50000000  0.74884957  1
  N  N47  1  0.74987614  0.25012386  0.25012386  1
  N  N48  1  0.74959433  0.00000000  0.00000000  1
  N  N49  1  0.50000000  0.25115043  0.00000000  1
  N  N50  1  0.50000000  0.00000000  0.25115043  1
  N  N51  1  0.74987614  0.25012386  0.74987614  1
  N  N52  1  0.74884957  0.00000000  0.50000000  1
  N  N53  1  0.50000000  0.25187226  0.50000000  1
  N  N54  1  0.50000000  0.00000000  0.74884957  1
  N  N55  1  0.74987614  0.74987614  0.25012386  1
  N  N56  1  0.74884957  0.50000000  0.00000000  1
  N  N57  1  0.50000000  0.74884957  0.00000000  1
  N  N58  1  0.50000000  0.50000000  0.25187226  1
  N  N59  1  0.74987614  0.74987614  0.74987614  1
  N  N60  1  0.74812774  0.50000000  0.50000000  1
  N  N61  1  0.50000000  0.74812774  0.50000000  1
  N  N62  1  0.50000000  0.50000000  0.74812774  1
  Mn  Mn63  1  0.50000000  0.50000000  0.50000000  1
