# generated using pymatgen
data_TaTi31N32
_symmetry_space_group_name_H-M   'P 1'
_cell_length_a   8.52183273
_cell_length_b   8.52183273
_cell_length_c   8.52183273
_cell_angle_alpha   90.00000000
_cell_angle_beta   90.00000000
_cell_angle_gamma   90.00000000
_symmetry_Int_Tables_number   1
_chemical_formula_structural   TaTi31N32
_chemical_formula_sum   'Ta1 Ti31 N32'
_cell_volume   618.86940967
_cell_formula_units_Z   1
loop_
 _symmetry_equiv_pos_site_id
 _symmetry_equiv_pos_as_xyz
  1  'x, y, z'
loop_
 _atom_site_type_symbol
 _atom_site_label
 _atom_site_symmetry_multiplicity
 _atom_site_fract_x
 _atom_site_fract_y
 _atom_site_fract_z
 _atom_site_occupancy
  Ti  Ti0  1  0.00000000  0.00000000  -0.00000000  1
  Ti  Ti1  1  0.00000000  0.25001228  0.25001228  1
  Ti  Ti2  1  0.25001228  0.00000000  0.25001228  1
  Ti  Ti3  1  0.25001228  0.25001228  -0.00000000  1
  Ti  Ti4  1  0.00000000  0.00000000  0.50000000  1
  Ti  Ti5  1  0.00000000  0.25001228  0.74998772  1
  Ti  Ti6  1  0.25001228  0.00000000  0.74998772  1
  Ti  Ti7  1  0.24740779  0.24740779  0.50000000  1
  Ti  Ti8  1  0.00000000  0.50000000  -0.00000000  1
  Ti  Ti9  1  0.00000000  0.74998772  0.25001228  1
  Ti  Ti10  1  0.24740779  0.50000000  0.24740779  1
  Ti  Ti11  1  0.25001228  0.74998772  -0.00000000  1
  Ti  Ti12  1  0.00000000  0.50000000  0.50000000  1
  Ti  Ti13  1  0.00000000  0.74998772  0.74998772  1
  Ti  Ti14  1  0.24740779  0.50000000  0.75259221  1
  Ti  Ti15  1  0.24740779  0.75259221  0.50000000  1
  Ti  Ti16  1  0.50000000  0.00000000  -0.00000000  1
  Ti  Ti17  1  0.50000000  0.24740779  0.24740779  1
  Ti  Ti18  1  0.74998772  0.00000000  0.25001228  1
  Ti  Ti19  1  0.74998772  0.25001228  -0.00000000  1
  Ti  Ti20  1  0.50000000  0.00000000  0.50000000  1
  Ti  Ti21  1  0.50000000  0.24740779  0.75259221  1
  Ti  Ti22  1  0.74998772  0.00000000  0.74998772  1
  Ti  Ti23  1  0.75259221  0.24740779  0.50000000  1
  Ti  Ti24  1  0.50000000  0.50000000  -0.00000000  1
  Ti  Ti25  1  0.50000000  0.75259221  0.24740779  1
  Ti  Ti26  1  0.75259221  0.50000000  0.24740779  1
  Ti  Ti27  1  0.74998772  0.74998772  -0.00000000  1
  Ti  Ti28  1  0.50000000  0.75259221  0.75259221  1
  Ti  Ti29  1  0.75259221  0.50000000  0.75259221  1
  Ti  Ti30  1  0.75259221  0.75259221  0.50000000  1
  N  N31  1  0.24988240  0.24988240  0.24988240  1
  N  N32  1  0.24979276  0.00000000  -0.00000000  1
  N  N33  1  0.00000000  0.24979276  -0.00000000  1
  N  N34  1  0.00000000  0.00000000  0.24979276  1
  N  N35  1  0.24988240  0.24988240  0.75011760  1
  N  N36  1  0.24959380  0.00000000  0.50000000  1
  N  N37  1  0.00000000  0.24959380  0.50000000  1
  N  N38  1  0.00000000  0.00000000  0.75020724  1
  N  N39  1  0.24988240  0.75011760  0.24988240  1
  N  N40  1  0.24959380  0.50000000  -0.00000000  1
  N  N41  1  0.00000000  0.75020724  -0.00000000  1
  N  N42  1  0.00000000  0.50000000  0.24959380  1
  N  N43  1  0.24988240  0.75011760  0.75011760  1
  N  N44  1  0.24777794  0.50000000  0.50000000  1
  N  N45  1  0.00000000  0.75040620  0.50000000  1
  N  N46  1  0.00000000  0.50000000  0.75040620  1
  N  N47  1  0.75011760  0.24988240  0.24988240  1
  N  N48  1  0.75020724  0.00000000  -0.00000000  1
  N  N49  1  0.50000000  0.24959380  -0.00000000  1
  N  N50  1  0.50000000  0.00000000  0.24959380  1
  N  N51  1  0.75011760  0.24988240  0.75011760  1
  N  N52  1  0.75040620  0.00000000  0.50000000  1
  N  N53  1  0.50000000  0.24777794  0.50000000  1
  N  N54  1  0.50000000  0.00000000  0.75040620  1
  N  N55  1  0.75011760  0.75011760  0.24988240  1
  N  N56  1  0.75040620  0.50000000  -0.00000000  1
  N  N57  1  0.50000000  0.75040620  -0.00000000  1
  N  N58  1  0.50000000  0.50000000  0.24777794  1
  N  N59  1  0.75011760  0.75011760  0.75011760  1
  N  N60  1  0.75222206  0.50000000  0.50000000  1
  N  N61  1  0.50000000  0.75222206  0.50000000  1
  N  N62  1  0.50000000  0.50000000  0.75222206  1
  Ta  Ta63  1  0.50000000  0.50000000  0.50000000  1
