# generated using pymatgen
data_Ti3BC4
_symmetry_space_group_name_H-M   'P 1'
_cell_length_a   8.09968225
_cell_length_b   7.99602242
_cell_length_c   5.24467165
_cell_angle_alpha   100.03036621
_cell_angle_beta   101.41809146
_cell_angle_gamma   101.03450795
_symmetry_Int_Tables_number   1
_chemical_formula_structural   Ti3BC4
_chemical_formula_sum   'Ti12 B4 C16'
_cell_volume   318.75699819
_cell_formula_units_Z   4
loop_
 _symmetry_equiv_pos_site_id
 _symmetry_equiv_pos_as_xyz
  1  'x, y, z'
loop_
 _atom_site_type_symbol
 _atom_site_label
 _atom_site_symmetry_multiplicity
 _atom_site_fract_x
 _atom_site_fract_y
 _atom_site_fract_z
 _atom_site_occupancy
  B  B0  1  0.45503151  0.18154193  0.10527755  1
  B  B1  1  0.30338019  0.27671331  0.63662951  1
  B  B2  1  0.05037556  0.91196725  0.47354422  1
  B  B3  1  0.82214268  0.21978063  0.43545101  1
  C  C4  1  0.49413690  0.74199986  0.25844350  1
  C  C5  1  0.26181117  0.13946600  0.20774011  1
  C  C6  1  0.36189608  0.32798400  0.27974756  1
  C  C7  1  0.12292749  0.59746371  0.22344564  1
  C  C8  1  0.88021087  0.86541187  0.24390539  1
  C  C9  1  0.96146392  0.24556466  0.26604957  1
  C  C10  1  0.74895708  0.50442891  0.26234610  1
  C  C11  1  0.62190067  0.12915851  0.27534054  1
  C  C12  1  0.38820350  0.83507018  0.74590044  1
  C  C13  1  0.47048335  0.22490503  0.80677040  1
  C  C14  1  0.24566731  0.45853020  0.74996684  1
  C  C15  1  0.03256940  0.79854574  0.72238477  1
  C  C16  1  0.74548683  0.99576314  0.76312597  1
  C  C17  1  0.20359713  0.08146684  0.44410405  1
  C  C18  1  0.86726474  0.35520948  0.73052055  1
  C  C19  1  0.62703905  0.61317920  0.76488332  1
  Ti  Ti20  1  0.10881477  0.36215104  0.02185837  1
  Ti  Ti21  1  0.25353929  0.71730520  0.97352802  1
  Ti  Ti22  1  0.98669664  0.99773705  0.01441233  1
  Ti  Ti23  1  0.73729253  0.23884041  0.99609782  1
  Ti  Ti24  1  0.87388027  0.61695699  0.00217317  1
  Ti  Ti25  1  0.62188455  0.86057025  0.01180241  1
  Ti  Ti26  1  0.49963742  0.48618157  0.02333702  1
  Ti  Ti27  1  0.37293633  0.60451508  0.50567000  1
  Ti  Ti28  1  0.62391554  0.37965707  0.52755468  1
  Ti  Ti29  1  0.99757307  0.49707339  0.49066739  1
  Ti  Ti30  1  0.75649718  0.75147431  0.51021920  1
  Ti  Ti31  1  0.50278696  0.98338716  0.52710255  1
