# generated using pymatgen
data_Ti3AlC4
_symmetry_space_group_name_H-M   'P 1'
_cell_length_a   8.09478937
_cell_length_b   8.10836907
_cell_length_c   5.29923427
_cell_angle_alpha   102.64848224
_cell_angle_beta   102.63870430
_cell_angle_gamma   98.14277113
_symmetry_Int_Tables_number   1
_chemical_formula_structural   Ti3AlC4
_chemical_formula_sum   'Ti12 Al4 C16'
_cell_volume   324.52452052
_cell_formula_units_Z   4
loop_
 _symmetry_equiv_pos_site_id
 _symmetry_equiv_pos_as_xyz
  1  'x, y, z'
loop_
 _atom_site_type_symbol
 _atom_site_label
 _atom_site_symmetry_multiplicity
 _atom_site_fract_x
 _atom_site_fract_y
 _atom_site_fract_z
 _atom_site_occupancy
  Al  Al0  1  0.37365431  0.12442256  0.99853433  1
  Al  Al1  1  0.24843328  0.24726991  0.49881736  1
  Al  Al2  1  0.12519279  0.87778685  0.50043140  1
  Al  Al3  1  0.87645957  0.12458277  0.50068703  1
  C  C4  1  0.50013740  0.75201589  0.25205068  1
  C  C5  1  0.24916497  0.99742441  0.24859876  1
  C  C6  1  0.37644231  0.37794958  0.24832864  1
  C  C7  1  0.12534727  0.62242988  0.24924842  1
  C  C8  1  0.87391604  0.87380894  0.24876163  1
  C  C9  1  0.99811262  0.24977541  0.24559178  1
  C  C10  1  0.75032047  0.49962227  0.25185095  1
  C  C11  1  0.62500814  0.12513283  0.24998716  1
  C  C12  1  0.37610847  0.87298684  0.74943125  1
  C  C13  1  0.50229321  0.25016373  0.74868335  1
  C  C14  1  0.24925580  0.50132118  0.75017225  1
  C  C15  1  0.99891920  0.75022624  0.75325239  1
  C  C16  1  0.74927256  0.99897974  0.75347128  1
  C  C17  1  0.12498230  0.12536787  0.74909515  1
  C  C18  1  0.87605108  0.37735052  0.75034849  1
  C  C19  1  0.62442356  0.62430418  0.74991564  1
  Ti  Ti20  1  0.12624647  0.36916509  0.99638839  1
  Ti  Ti21  1  0.25016461  0.75305476  0.00009214  1
  Ti  Ti22  1  0.00478293  0.00273998  0.99727509  1
  Ti  Ti23  1  0.74985840  0.24858924  0.00116286  1
  Ti  Ti24  1  0.87600185  0.62641636  0.00241190  1
  Ti  Ti25  1  0.62589518  0.87754208  0.00301261  1
  Ti  Ti26  1  0.49859248  0.49828371  0.00087926  1
  Ti  Ti27  1  0.37384282  0.62544095  0.50054425  1
  Ti  Ti28  1  0.62244907  0.37263349  0.49958771  1
  Ti  Ti29  1  0.00033729  0.49881780  0.50010583  1
  Ti  Ti30  1  0.75155901  0.75237124  0.50071677  1
  Ti  Ti31  1  0.49677452  0.00202372  0.50056526  1
