# generated using pymatgen
data_Ti3SiC4
_symmetry_space_group_name_H-M   'P 1'
_cell_length_a   8.02058737
_cell_length_b   8.00516359
_cell_length_c   5.24240477
_cell_angle_alpha   102.60956051
_cell_angle_beta   102.45906390
_cell_angle_gamma   98.31458357
_symmetry_Int_Tables_number   1
_chemical_formula_structural   Ti3SiC4
_chemical_formula_sum   'Ti12 Si4 C16'
_cell_volume   314.18253895
_cell_formula_units_Z   4
loop_
 _symmetry_equiv_pos_site_id
 _symmetry_equiv_pos_as_xyz
  1  'x, y, z'
loop_
 _atom_site_type_symbol
 _atom_site_label
 _atom_site_symmetry_multiplicity
 _atom_site_fract_x
 _atom_site_fract_y
 _atom_site_fract_z
 _atom_site_occupancy
  Si  Si0  1  0.38119448  0.12381318  0.00423273  1
  Si  Si1  1  0.24856017  0.24645837  0.49610277  1
  Si  Si2  1  0.12426662  0.87491324  0.49742571  1
  Si  Si3  1  0.87450625  0.12387588  0.49452190  1
  C  C4  1  0.49960294  0.75203666  0.25136722  1
  C  C5  1  0.25296021  0.01050850  0.24911299  1
  C  C6  1  0.36909342  0.36056225  0.25175139  1
  C  C7  1  0.12541918  0.63116431  0.25673101  1
  C  C8  1  0.88465620  0.88481581  0.26233213  1
  C  C9  1  0.00230071  0.24573322  0.26111654  1
  C  C10  1  0.74921372  0.49889915  0.25265576  1
  C  C11  1  0.62594248  0.12442471  0.25094627  1
  C  C12  1  0.36747040  0.88366077  0.75029928  1
  C  C13  1  0.48790944  0.24479837  0.75475073  1
  C  C14  1  0.24815168  0.49348152  0.74734935  1
  C  C15  1  0.00350468  0.75500098  0.74493282  1
  C  C16  1  0.75399290  0.00349460  0.74341183  1
  C  C17  1  0.12714036  0.11896156  0.71692795  1
  C  C18  1  0.87533931  0.36894541  0.74580987  1
  C  C19  1  0.62357658  0.62429898  0.75170979  1
  Ti  Ti20  1  0.12371455  0.37391074  0.00260001  1
  Ti  Ti21  1  0.24995748  0.75232559  0.00301623  1
  Ti  Ti22  1  0.00408860  0.00211112  0.99014700  1
  Ti  Ti23  1  0.75037225  0.25013854  0.00224335  1
  Ti  Ti24  1  0.87586887  0.62739644  0.00216233  1
  Ti  Ti25  1  0.62798644  0.87726044  0.00079139  1
  Ti  Ti26  1  0.49738464  0.49816098  0.00392661  1
  Ti  Ti27  1  0.37418393  0.62624402  0.50420033  1
  Ti  Ti28  1  0.62318520  0.37322652  0.50498913  1
  Ti  Ti29  1  0.99953240  0.49941175  0.50270371  1
  Ti  Ti30  1  0.74964044  0.74971493  0.50002956  1
  Ti  Ti31  1  0.49928347  0.00025144  0.49970230  1
