# generated using pymatgen
data_TiC
_symmetry_space_group_name_H-M   'P 1'
_cell_length_a   8.11601969
_cell_length_b   8.11589727
_cell_length_c   5.31200673
_cell_angle_alpha   102.58734555
_cell_angle_beta   102.58279689
_cell_angle_gamma   98.23811332
_symmetry_Int_Tables_number   1
_chemical_formula_structural   TiC
_chemical_formula_sum   'Ti16 C16'
_cell_volume   326.53177592
_cell_formula_units_Z   16
loop_
 _symmetry_equiv_pos_site_id
 _symmetry_equiv_pos_as_xyz
  1  'x, y, z'
loop_
 _atom_site_type_symbol
 _atom_site_label
 _atom_site_symmetry_multiplicity
 _atom_site_fract_x
 _atom_site_fract_y
 _atom_site_fract_z
 _atom_site_occupancy
  Ti  Ti0  1  0.37496719  0.12496701  0.99988323  1
  Ti  Ti1  1  0.25002995  0.25001640  0.49988947  1
  Ti  Ti2  1  0.12498722  0.87498055  0.49998082  1
  Ti  Ti3  1  0.87505327  0.12503837  0.50014976  1
  Ti  Ti4  1  0.12499092  0.37501003  0.99998995  1
  Ti  Ti5  1  0.24996571  0.74997799  0.00013317  1
  Ti  Ti6  1  0.99990654  0.99992272  0.00007107  1
  Ti  Ti7  1  0.74996715  0.24998439  0.00013817  1
  Ti  Ti8  1  0.87496848  0.62496502  0.99988372  1
  Ti  Ti9  1  0.62496408  0.87499752  0.99991425  1
  Ti  Ti10  1  0.49993047  0.49994664  0.00011291  1
  Ti  Ti11  1  0.37503701  0.62504978  0.50013759  1
  Ti  Ti12  1  0.62502056  0.37499852  0.50006512  1
  Ti  Ti13  1  0.00007228  0.50005236  0.49989269  1
  Ti  Ti14  1  0.75004197  0.75003798  0.49985008  1
  Ti  Ti15  1  0.50009932  0.00008007  0.49992750  1
  C  C16  1  0.50000877  0.75001361  0.25002928  1
  C  C17  1  0.24998949  0.99998999  0.24997090  1
  C  C18  1  0.37497640  0.37498604  0.25001845  1
  C  C19  1  0.12501951  0.62499092  0.24998878  1
  C  C20  1  0.87498747  0.87500423  0.24993373  1
  C  C21  1  0.00000751  0.25001048  0.25002598  1
  C  C22  1  0.74997655  0.49999179  0.24997274  1
  C  C23  1  0.62501176  0.12499965  0.24999833  1
  C  C24  1  0.37501967  0.87498983  0.75001114  1
  C  C25  1  0.49999334  0.24999561  0.75000050  1
  C  C26  1  0.25002118  0.50001131  0.75004264  1
  C  C27  1  0.99998213  0.74999365  0.74996722  1
  C  C28  1  0.75000928  0.00001011  0.75001967  1
  C  C29  1  0.12497978  0.12499370  0.75000118  1
  C  C30  1  0.87502809  0.37499218  0.74999428  1
  C  C31  1  0.62498694  0.62500153  0.75000569  1
