# generated using pymatgen
data_Ti3VC4
_symmetry_space_group_name_H-M   'P 1'
_cell_length_a   8.02605483
_cell_length_b   8.02521441
_cell_length_c   5.25197025
_cell_angle_alpha   102.61444330
_cell_angle_beta   102.57115909
_cell_angle_gamma   98.18997675
_symmetry_Int_Tables_number   1
_chemical_formula_structural   Ti3VC4
_chemical_formula_sum   'Ti12 V4 C16'
_cell_volume   315.72894280
_cell_formula_units_Z   4
loop_
 _symmetry_equiv_pos_site_id
 _symmetry_equiv_pos_as_xyz
  1  'x, y, z'
loop_
 _atom_site_type_symbol
 _atom_site_label
 _atom_site_symmetry_multiplicity
 _atom_site_fract_x
 _atom_site_fract_y
 _atom_site_fract_z
 _atom_site_occupancy
  V  V0  1  0.37354695  0.12406003  0.00341017  1
  V  V1  1  0.24887586  0.24791049  0.50287771  1
  V  V2  1  0.12680515  0.87807167  0.49745626  1
  V  V3  1  0.87587658  0.12556714  0.49913300  1
  C  C4  1  0.49992777  0.75087723  0.24969710  1
  C  C5  1  0.24964747  0.00338965  0.25351496  1
  C  C6  1  0.37259447  0.36907060  0.25027404  1
  C  C7  1  0.12521098  0.62795583  0.25302382  1
  C  C8  1  0.87948680  0.87966252  0.25538019  1
  C  C9  1  0.00207310  0.24767164  0.25599541  1
  C  C10  1  0.75000259  0.49942238  0.25011418  1
  C  C11  1  0.62428125  0.12483212  0.25047713  1
  C  C12  1  0.37153900  0.87906282  0.74964263  1
  C  C13  1  0.49443965  0.24725043  0.74985737  1
  C  C14  1  0.24921082  0.49565676  0.74717643  1
  C  C15  1  0.00279383  0.75305452  0.74644884  1
  C  C16  1  0.75200829  0.00234845  0.74687813  1
  C  C17  1  0.12692721  0.12368604  0.74466852  1
  C  C18  1  0.87530110  0.37100487  0.74638393  1
  C  C19  1  0.62448934  0.62447465  0.75011855  1
  Ti  Ti20  1  0.12442354  0.37283935  0.00060933  1
  Ti  Ti21  1  0.25015425  0.75110766  0.99946470  1
  Ti  Ti22  1  0.00190619  0.00143818  0.99759475  1
  Ti  Ti23  1  0.74920682  0.24956322  0.00054954  1
  Ti  Ti24  1  0.87624514  0.62659342  0.99889052  1
  Ti  Ti25  1  0.62604773  0.87637512  0.99902905  1
  Ti  Ti26  1  0.49862387  0.49811249  0.00154140  1
  Ti  Ti27  1  0.37443395  0.62451874  0.50052367  1
  Ti  Ti28  1  0.62336009  0.37327918  0.50167853  1
  Ti  Ti29  1  0.00032657  0.49972963  0.49959537  1
  Ti  Ti30  1  0.75116630  0.75092416  0.49811321  1
  Ti  Ti31  1  0.49906735  0.00048898  0.49988158  1
