# generated using pymatgen
data_Ti3CrC4
_symmetry_space_group_name_H-M   'P 1'
_cell_length_a   8.00520730
_cell_length_b   7.99756124
_cell_length_c   5.22814249
_cell_angle_alpha   102.57749345
_cell_angle_beta   102.22451411
_cell_angle_gamma   98.35963565
_symmetry_Int_Tables_number   1
_chemical_formula_structural   Ti3CrC4
_chemical_formula_sum   'Ti12 Cr4 C16'
_cell_volume   312.77694592
_cell_formula_units_Z   4
loop_
 _symmetry_equiv_pos_site_id
 _symmetry_equiv_pos_as_xyz
  1  'x, y, z'
loop_
 _atom_site_type_symbol
 _atom_site_label
 _atom_site_symmetry_multiplicity
 _atom_site_fract_x
 _atom_site_fract_y
 _atom_site_fract_z
 _atom_site_occupancy
  Cr  Cr0  1  0.39176050  0.12292796  0.04006344  1
  Cr  Cr1  1  0.25506518  0.24770188  0.49046222  1
  Cr  Cr2  1  0.12894843  0.89632021  0.50870058  1
  Cr  Cr3  1  0.85205858  0.12270995  0.47372349  1
  C  C4  1  0.49851823  0.75045081  0.24984189  1
  C  C5  1  0.25102071  0.00572520  0.25643563  1
  C  C6  1  0.37280378  0.36701824  0.25151025  1
  C  C7  1  0.12588878  0.62416621  0.24972757  1
  C  C8  1  0.88018736  0.88447240  0.25849706  1
  C  C9  1  0.00037002  0.24481200  0.25619286  1
  C  C10  1  0.75125269  0.50060315  0.25105701  1
  C  C11  1  0.62471751  0.12465985  0.25401752  1
  C  C12  1  0.36944158  0.88323222  0.75334438  1
  C  C13  1  0.49182371  0.24578944  0.75468816  1
  C  C14  1  0.24815563  0.49420541  0.74456365  1
  C  C15  1  0.00443616  0.75684898  0.74634545  1
  C  C16  1  0.75152869  0.00274572  0.74319267  1
  C  C17  1  0.13064415  0.12012586  0.73882274  1
  C  C18  1  0.87527982  0.36906154  0.74362806  1
  C  C19  1  0.62421942  0.62449006  0.74990216  1
  Ti  Ti20  1  0.12468757  0.36633810  0.99288438  1
  Ti  Ti21  1  0.24933813  0.74984194  0.00009434  1
  Ti  Ti22  1  0.00202910  0.00222315  0.99854179  1
  Ti  Ti23  1  0.75021871  0.24992138  0.99409630  1
  Ti  Ti24  1  0.87861414  0.62725475  -0.00011990  1
  Ti  Ti25  1  0.62383185  0.87312029  0.99571933  1
  Ti  Ti26  1  0.49722003  0.49486590  0.00078046  1
  Ti  Ti27  1  0.37221477  0.62264373  0.49774432  1
  Ti  Ti28  1  0.62414298  0.37579482  0.50460708  1
  Ti  Ti29  1  0.00122562  0.49713517  0.49633094  1
  Ti  Ti30  1  0.75226571  0.75250350  0.49793712  1
  Ti  Ti31  1  0.49609049  0.00029018  0.50666703  1
