# generated using pymatgen
data_Ti3MnC4
_symmetry_space_group_name_H-M   'P 1'
_cell_length_a   8.00141073
_cell_length_b   7.99441166
_cell_length_c   5.22782748
_cell_angle_alpha   102.77884896
_cell_angle_beta   102.43984745
_cell_angle_gamma   98.13465386
_symmetry_Int_Tables_number   1
_chemical_formula_structural   Ti3MnC4
_chemical_formula_sum   'Ti12 Mn4 C16'
_cell_volume   312.12225310
_cell_formula_units_Z   4
loop_
 _symmetry_equiv_pos_site_id
 _symmetry_equiv_pos_as_xyz
  1  'x, y, z'
loop_
 _atom_site_type_symbol
 _atom_site_label
 _atom_site_symmetry_multiplicity
 _atom_site_fract_x
 _atom_site_fract_y
 _atom_site_fract_z
 _atom_site_occupancy
  Mn  Mn0  1  0.40211563  0.13059915  0.04745099  1
  Mn  Mn1  1  0.26433715  0.24918559  0.46729386  1
  Mn  Mn2  1  0.11922697  0.88823997  0.53153536  1
  Mn  Mn3  1  0.84466092  0.12015341  0.46535363  1
  C  C4  1  0.49757887  0.75214620  0.25099543  1
  C  C5  1  0.25082686  0.00918741  0.26024171  1
  C  C6  1  0.37505784  0.36960505  0.24692192  1
  C  C7  1  0.12543856  0.62043938  0.24733249  1
  C  C8  1  0.87891039  0.88413589  0.26097483  1
  C  C9  1  0.00261688  0.24329430  0.25482109  1
  C  C10  1  0.75139990  0.50030806  0.25219281  1
  C  C11  1  0.62514433  0.12571966  0.25369545  1
  C  C12  1  0.36862236  0.88344551  0.75726360  1
  C  C13  1  0.48982708  0.24501111  0.75263222  1
  C  C14  1  0.24834402  0.49321208  0.74201092  1
  C  C15  1  0.00473181  0.75708488  0.74888599  1
  C  C16  1  0.74924551  0.00223453  0.74423510  1
  C  C17  1  0.13244211  0.11153034  0.72634381  1
  C  C18  1  0.87519628  0.36881309  0.74269505  1
  C  C19  1  0.62406003  0.62514780  0.75053152  1
  Ti  Ti20  1  0.12519672  0.36372905  0.98577855  1
  Ti  Ti21  1  0.24926130  0.75328616  0.00648946  1
  Ti  Ti22  1  0.00296890  0.00342163  0.00982116  1
  Ti  Ti23  1  0.75144657  0.25034132  0.99108533  1
  Ti  Ti24  1  0.88015388  0.62853572  0.00319677  1
  Ti  Ti25  1  0.62310059  0.87285051  0.99453500  1
  Ti  Ti26  1  0.49628177  0.49502091  -0.00119029  1
  Ti  Ti27  1  0.36997081  0.62398360  0.49790965  1
  Ti  Ti28  1  0.62599405  0.37913920  0.50481339  1
  Ti  Ti29  1  0.00134553  0.49340021  0.49378068  1
  Ti  Ti30  1  0.75187281  0.75571365  0.49944912  1
  Ti  Ti31  1  0.49262355  0.00108461  0.51092343  1
