# generated using pymatgen
data_Ti3FeC4
_symmetry_space_group_name_H-M   'P 1'
_cell_length_a   7.98324154
_cell_length_b   7.97418010
_cell_length_c   5.21612940
_cell_angle_alpha   102.82697117
_cell_angle_beta   102.38792083
_cell_angle_gamma   98.15685922
_symmetry_Int_Tables_number   1
_chemical_formula_structural   Ti3FeC4
_chemical_formula_sum   'Ti12 Fe4 C16'
_cell_volume   309.90862516
_cell_formula_units_Z   4
loop_
 _symmetry_equiv_pos_site_id
 _symmetry_equiv_pos_as_xyz
  1  'x, y, z'
loop_
 _atom_site_type_symbol
 _atom_site_label
 _atom_site_symmetry_multiplicity
 _atom_site_fract_x
 _atom_site_fract_y
 _atom_site_fract_z
 _atom_site_occupancy
  Fe  Fe0  1  0.41428414  0.12740093  0.01901471  1
  Fe  Fe1  1  0.24612947  0.26023995  0.49626434  1
  Fe  Fe2  1  0.11537014  0.86192143  0.51132674  1
  Fe  Fe3  1  0.84343441  0.12256952  0.46836307  1
  C  C4  1  0.49852227  0.75343633  0.25273064  1
  C  C5  1  0.25254839  0.01496306  0.25365810  1
  C  C6  1  0.37229256  0.36050183  0.24559618  1
  C  C7  1  0.12503426  0.62136562  0.24989366  1
  C  C8  1  0.88379282  0.88657128  0.26450125  1
  C  C9  1  0.00252409  0.24399048  0.25986653  1
  C  C10  1  0.75036177  0.49975973  0.25440206  1
  C  C11  1  0.62357973  0.12583140  0.25245862  1
  C  C12  1  0.36691238  0.88564644  0.75513676  1
  C  C13  1  0.49104919  0.24724595  0.75548090  1
  C  C14  1  0.24779267  0.49682328  0.74921247  1
  C  C15  1  0.00390862  0.75398840  0.74969109  1
  C  C16  1  0.75131862  0.00308660  0.74443059  1
  C  C17  1  0.13524195  0.10857957  0.70192076  1
  C  C18  1  0.87380451  0.36920279  0.74453479  1
  C  C19  1  0.62291181  0.62533460  0.75215904  1
  Ti  Ti20  1  0.12801436  0.36560603  0.99152029  1
  Ti  Ti21  1  0.25075742  0.75388514  0.00642618  1
  Ti  Ti22  1  0.00975453  0.00443385  0.00173784  1
  Ti  Ti23  1  0.75531564  0.25108520  0.99598066  1
  Ti  Ti24  1  0.88055812  0.62927631  0.00445712  1
  Ti  Ti25  1  0.62834103  0.87533353  0.99778892  1
  Ti  Ti26  1  0.49672078  0.49555266  0.00420055  1
  Ti  Ti27  1  0.36969835  0.62474361  0.50138591  1
  Ti  Ti28  1  0.62044604  0.37726249  0.50786476  1
  Ti  Ti29  1  0.99935952  0.49475038  0.49892213  1
  Ti  Ti30  1  0.75188411  0.75632031  0.50007848  1
  Ti  Ti31  1  0.48833628  0.00329128  0.50899484  1
