# generated using pymatgen
data_Ti3CoC4
_symmetry_space_group_name_H-M   'P 1'
_cell_length_a   7.99748570
_cell_length_b   7.97937535
_cell_length_c   5.20258375
_cell_angle_alpha   102.84281130
_cell_angle_beta   102.10702415
_cell_angle_gamma   98.16068224
_symmetry_Int_Tables_number   1
_chemical_formula_structural   Ti3CoC4
_chemical_formula_sum   'Ti12 Co4 C16'
_cell_volume   310.24349365
_cell_formula_units_Z   4
loop_
 _symmetry_equiv_pos_site_id
 _symmetry_equiv_pos_as_xyz
  1  'x, y, z'
loop_
 _atom_site_type_symbol
 _atom_site_label
 _atom_site_symmetry_multiplicity
 _atom_site_fract_x
 _atom_site_fract_y
 _atom_site_fract_z
 _atom_site_occupancy
  Co  Co0  1  0.39479010  0.13087897  0.99317537  1
  Co  Co1  1  0.25162604  0.25719425  0.49520242  1
  Co  Co2  1  0.12271221  0.86417515  0.51215820  1
  Co  Co3  1  0.87227780  0.12423375  0.50432034  1
  C  C4  1  0.49896461  0.75442285  0.25307929  1
  C  C5  1  0.24743504  0.00986210  0.25866979  1
  C  C6  1  0.37342505  0.36504646  0.24207468  1
  C  C7  1  0.12599051  0.61938187  0.24929236  1
  C  C8  1  0.88371065  0.88461821  0.26316553  1
  C  C9  1  0.00375917  0.24368545  0.25972230  1
  C  C10  1  0.75092447  0.49953907  0.25481816  1
  C  C11  1  0.61949597  0.12631934  0.24952658  1
  C  C12  1  0.36581264  0.88566221  0.75176394  1
  C  C13  1  0.48974494  0.24750349  0.74840372  1
  C  C14  1  0.24814825  0.49799346  0.75031538  1
  C  C15  1  0.00239037  0.75295000  0.75166274  1
  C  C16  1  0.75218530  0.00271029  0.75080595  1
  C  C17  1  0.12778342  0.11084139  0.69792540  1
  C  C18  1  0.87566969  0.37018456  0.74784563  1
  C  C19  1  0.62263086  0.62549260  0.75159298  1
  Ti  Ti20  1  0.12735449  0.36540772  0.99256138  1
  Ti  Ti21  1  0.24838055  0.75376668  0.00580160  1
  Ti  Ti22  1  0.00699676  0.00247069  0.00332012  1
  Ti  Ti23  1  0.75127953  0.24897346  0.00186739  1
  Ti  Ti24  1  0.87874398  0.62726288  0.00380015  1
  Ti  Ti25  1  0.62577095  0.88084109  0.00121607  1
  Ti  Ti26  1  0.49672447  0.49787303  0.00281161  1
  Ti  Ti27  1  0.37176538  0.62320977  0.50061099  1
  Ti  Ti28  1  0.62090821  0.37247140  0.50201652  1
  Ti  Ti29  1  0.00073617  0.49452649  0.50026334  1
  Ti  Ti30  1  0.75307558  0.75636484  0.50106411  1
  Ti  Ti31  1  0.48878689  0.00413648  0.49914597  1
