# generated using pymatgen
data_Ti3NiC4
_symmetry_space_group_name_H-M   'P 1'
_cell_length_a   8.02313568
_cell_length_b   8.01023530
_cell_length_c   5.22806502
_cell_angle_alpha   102.77817527
_cell_angle_beta   102.15955339
_cell_angle_gamma   98.11765087
_symmetry_Int_Tables_number   1
_chemical_formula_structural   Ti3NiC4
_chemical_formula_sum   'Ti12 Ni4 C16'
_cell_volume   314.04441965
_cell_formula_units_Z   4
loop_
 _symmetry_equiv_pos_site_id
 _symmetry_equiv_pos_as_xyz
  1  'x, y, z'
loop_
 _atom_site_type_symbol
 _atom_site_label
 _atom_site_symmetry_multiplicity
 _atom_site_fract_x
 _atom_site_fract_y
 _atom_site_fract_z
 _atom_site_occupancy
  Ni  Ni0  1  0.37801334  0.12855772  0.99098902  1
  Ni  Ni1  1  0.24954514  0.25071495  0.48887901  1
  Ni  Ni2  1  0.12266771  0.86743544  0.50313092  1
  Ni  Ni3  1  0.87421951  0.12565619  0.50603930  1
  C  C4  1  0.49923154  0.75490036  0.25329551  1
  C  C5  1  0.24537561  0.00660722  0.25643040  1
  C  C6  1  0.37449489  0.36957810  0.24273503  1
  C  C7  1  0.12559325  0.61901438  0.24931858  1
  C  C8  1  0.88314516  0.88429708  0.26173079  1
  C  C9  1  0.00304994  0.24332755  0.25549723  1
  C  C10  1  0.75119398  0.49934519  0.25338096  1
  C  C11  1  0.62322063  0.12643854  0.25270260  1
  C  C12  1  0.36892255  0.88032036  0.75219075  1
  C  C13  1  0.49234635  0.24847806  0.74867913  1
  C  C14  1  0.24833780  0.49840038  0.75076600  1
  C  C15  1  -0.00005118  0.75167067  0.75203208  1
  C  C16  1  0.75143364  0.00141139  0.75111419  1
  C  C17  1  0.13686755  0.11570111  0.71236852  1
  C  C18  1  0.87660426  0.37272462  0.75054139  1
  C  C19  1  0.62333256  0.62563199  0.75268364  1
  Ti  Ti20  1  0.12920403  0.36716931  0.99014260  1
  Ti  Ti21  1  0.24807254  0.75627925  0.00691850  1
  Ti  Ti22  1  0.00478709  0.00121095  0.99405822  1
  Ti  Ti23  1  0.75279099  0.24689685  0.00597328  1
  Ti  Ti24  1  0.87731553  0.62481909  0.00363131  1
  Ti  Ti25  1  0.62426283  0.88065600  0.00505667  1
  Ti  Ti26  1  0.49889472  0.49986360  0.00274945  1
  Ti  Ti27  1  0.37161281  0.62450227  0.50085329  1
  Ti  Ti28  1  0.62184528  0.37132868  0.49951858  1
  Ti  Ti29  1  0.00191493  0.49638293  0.50144698  1
  Ti  Ti30  1  0.75231224  0.75527910  0.50358010  1
  Ti  Ti31  1  0.48944279  0.00540069  0.50156596  1
