# generated using pymatgen
data_YTi3C4
_symmetry_space_group_name_H-M   'P 1'
_cell_length_a   8.45749230
_cell_length_b   8.48382005
_cell_length_c   5.51722778
_cell_angle_alpha   102.58894879
_cell_angle_beta   102.57161104
_cell_angle_gamma   98.12241162
_symmetry_Int_Tables_number   1
_chemical_formula_structural   YTi3C4
_chemical_formula_sum   'Y4 Ti12 C16'
_cell_volume   369.61573336
_cell_formula_units_Z   4
loop_
 _symmetry_equiv_pos_site_id
 _symmetry_equiv_pos_as_xyz
  1  'x, y, z'
loop_
 _atom_site_type_symbol
 _atom_site_label
 _atom_site_symmetry_multiplicity
 _atom_site_fract_x
 _atom_site_fract_y
 _atom_site_fract_z
 _atom_site_occupancy
  Y  Y0  1  0.38045855  0.12732063  0.99574527  1
  Y  Y1  1  0.25237096  0.25431700  0.49466222  1
  Y  Y2  1  0.12199558  0.86729218  0.50386301  1
  Y  Y3  1  0.87253203  0.12552189  0.50013360  1
  C  C4  1  0.50207571  0.74793850  0.24981104  1
  C  C5  1  0.25116340  0.98033911  0.23715362  1
  C  C6  1  0.38761372  0.40016391  0.24980733  1
  C  C7  1  0.12516431  0.61389254  0.24061362  1
  C  C8  1  0.85957041  0.85837478  0.22501207  1
  C  C9  1  0.99076570  0.26195843  0.22724612  1
  C  C10  1  0.75034693  0.50270154  0.25117172  1
  C  C11  1  0.62448027  0.12670411  0.25602743  1
  C  C12  1  0.39087059  0.86009651  0.74563652  1
  C  C13  1  0.52397476  0.26133206  0.74809924  1
  C  C14  1  0.25060727  0.51311112  0.76092465  1
  C  C15  1  0.98845893  0.74064665  0.76030515  1
  C  C16  1  0.74183539  0.98796125  0.75868623  1
  C  C17  1  0.11389662  0.13373952  0.79294500  1
  C  C18  1  0.87514970  0.39072858  0.75886960  1
  C  C19  1  0.62580864  0.62450835  0.74746560  1
  Ti  Ti20  1  0.12120636  0.38511210  0.00077559  1
  Ti  Ti21  1  0.25209880  0.74385193  0.00411567  1
  Ti  Ti22  1  0.98856069  0.99072147  0.99473326  1
  Ti  Ti23  1  0.75206971  0.25919161  0.00169634  1
  Ti  Ti24  1  0.86982327  0.62263948  0.99733182  1
  Ti  Ti25  1  0.62383868  0.86540584  0.99362206  1
  Ti  Ti26  1  0.50496814  0.50812368  0.00451025  1
  Ti  Ti27  1  0.38031508  0.62539358  0.50021174  1
  Ti  Ti28  1  0.63044806  0.38415564  0.50488809  1
  Ti  Ti29  1  0.99627990  0.50248834  0.49909341  1
  Ti  Ti30  1  0.74524618  0.74358807  0.49863340  1
  Ti  Ti31  1  0.50600567  0.99067962  0.49620937  1
