# generated using pymatgen
data_ZrTi3C4
_symmetry_space_group_name_H-M   'P 1'
_cell_length_a   8.31410493
_cell_length_b   8.30793387
_cell_length_c   5.43450979
_cell_angle_alpha   102.63619153
_cell_angle_beta   102.53676790
_cell_angle_gamma   98.22091036
_symmetry_Int_Tables_number   1
_chemical_formula_structural   ZrTi3C4
_chemical_formula_sum   'Zr4 Ti12 C16'
_cell_volume   350.33062807
_cell_formula_units_Z   4
loop_
 _symmetry_equiv_pos_site_id
 _symmetry_equiv_pos_as_xyz
  1  'x, y, z'
loop_
 _atom_site_type_symbol
 _atom_site_label
 _atom_site_symmetry_multiplicity
 _atom_site_fract_x
 _atom_site_fract_y
 _atom_site_fract_z
 _atom_site_occupancy
  Zr  Zr0  1  0.37903910  0.12602619  0.00041435  1
  Zr  Zr1  1  0.25164879  0.25490202  0.49964777  1
  Zr  Zr2  1  0.12311123  0.86856645  0.49870756  1
  Zr  Zr3  1  0.87158951  0.12543754  0.50043878  1
  C  C4  1  0.50087069  0.74867054  0.25061561  1
  C  C5  1  0.25049713  0.99265378  0.24455575  1
  C  C6  1  0.38049693  0.38690146  0.25041402  1
  C  C7  1  0.12452793  0.61815159  0.24348193  1
  C  C8  1  0.86703172  0.86677229  0.23782175  1
  C  C9  1  0.99599931  0.25494703  0.23875677  1
  C  C10  1  0.74991951  0.50140570  0.25077673  1
  C  C11  1  0.62561685  0.12525464  0.25027476  1
  C  C12  1  0.38197416  0.86725145  0.74937917  1
  C  C13  1  0.51126570  0.25585965  0.75001318  1
  C  C14  1  0.25085172  0.50791205  0.75645527  1
  C  C15  1  0.99438789  0.74435205  0.75547322  1
  C  C16  1  0.74584865  0.99492475  0.75524126  1
  C  C17  1  0.12130066  0.12741051  0.76188283  1
  C  C18  1  0.87429686  0.38271426  0.75573969  1
  C  C19  1  0.62555328  0.62520275  0.74951446  1
  Ti  Ti20  1  0.12359751  0.38049897  0.00140972  1
  Ti  Ti21  1  0.25117994  0.74595725  0.00098203  1
  Ti  Ti22  1  0.99486386  0.99586489  0.99735827  1
  Ti  Ti23  1  0.75091893  0.25397724  0.00096980  1
  Ti  Ti24  1  0.87208387  0.62307564  0.99772321  1
  Ti  Ti25  1  0.62479555  0.87036870  0.99733740  1
  Ti  Ti26  1  0.50350726  0.50495086  0.00284512  1
  Ti  Ti27  1  0.37835394  0.62597141  0.50047397  1
  Ti  Ti28  1  0.62800612  0.38044598  0.50269740  1
  Ti  Ti29  1  0.99729659  0.50157048  0.50009996  1
  Ti  Ti30  1  0.74672592  0.74632436  0.49928900  1
  Ti  Ti31  1  0.50284288  0.99567752  0.49920926  1
