# generated using pymatgen
data_Ti3NbC4
_symmetry_space_group_name_H-M   'P 1'
_cell_length_a   8.19919621
_cell_length_b   8.19610291
_cell_length_c   5.37087451
_cell_angle_alpha   102.66656931
_cell_angle_beta   102.62608861
_cell_angle_gamma   98.17869756
_symmetry_Int_Tables_number   1
_chemical_formula_structural   Ti3NbC4
_chemical_formula_sum   'Ti12 Nb4 C16'
_cell_volume   336.70421675
_cell_formula_units_Z   4
loop_
 _symmetry_equiv_pos_site_id
 _symmetry_equiv_pos_as_xyz
  1  'x, y, z'
loop_
 _atom_site_type_symbol
 _atom_site_label
 _atom_site_symmetry_multiplicity
 _atom_site_fract_x
 _atom_site_fract_y
 _atom_site_fract_z
 _atom_site_occupancy
  Nb  Nb0  1  0.37709065  0.12484952  0.00309662  1
  Nb  Nb1  1  0.25088835  0.25359626  0.50340980  1
  Nb  Nb2  1  0.12451122  0.87123111  0.49559919  1
  Nb  Nb3  1  0.87252908  0.12578170  0.49914607  1
  C  C4  1  0.50052364  0.74935407  0.24998966  1
  C  C5  1  0.25020531  0.99729316  0.24822578  1
  C  C6  1  0.37671923  0.37899343  0.25085265  1
  C  C7  1  0.12472787  0.62286804  0.24814240  1
  C  C8  1  0.87248863  0.87220505  0.24572160  1
  C  C9  1  0.99887304  0.25194260  0.24623864  1
  C  C10  1  0.74981086  0.50054699  0.25012813  1
  C  C11  1  0.62513406  0.12514334  0.25052134  1
  C  C12  1  0.37728830  0.87226754  0.74961298  1
  C  C13  1  0.50375224  0.25213824  0.75011080  1
  C  C14  1  0.25045984  0.50234945  0.75197126  1
  C  C15  1  0.99836883  0.74799107  0.75075652  1
  C  C16  1  0.74849370  0.99840039  0.75125215  1
  C  C17  1  0.12353198  0.12607623  0.75498291  1
  C  C18  1  0.87437794  0.37737145  0.75147845  1
  C  C19  1  0.62540971  0.62511093  0.74986015  1
  Ti  Ti20  1  0.12357025  0.37809150  0.00252571  1
  Ti  Ti21  1  0.25108984  0.74725867  0.99895616  1
  Ti  Ti22  1  0.99776316  0.99826782  0.99569165  1
  Ti  Ti23  1  0.74975547  0.25234730  0.00124226  1
  Ti  Ti24  1  0.87334906  0.62421508  0.99696345  1
  Ti  Ti25  1  0.62567585  0.87220393  0.99728588  1
  Ti  Ti26  1  0.50202599  0.50244395  0.00398591  1
  Ti  Ti27  1  0.37707974  0.62506876  0.50111642  1
  Ti  Ti28  1  0.62608133  0.37811606  0.50403977  1
  Ti  Ti29  1  0.99804566  0.50139744  0.49939269  1
  Ti  Ti30  1  0.74826445  0.74767725  0.49784252  1
  Ti  Ti31  1  0.50211473  0.99740166  0.49986049  1
