# generated using pymatgen
data_Ti3MoC4
_symmetry_space_group_name_H-M   'P 1'
_cell_length_a   8.11578766
_cell_length_b   8.11607091
_cell_length_c   5.31622048
_cell_angle_alpha   102.59130590
_cell_angle_beta   102.53826853
_cell_angle_gamma   98.21092623
_symmetry_Int_Tables_number   1
_chemical_formula_structural   Ti3MoC4
_chemical_formula_sum   'Ti12 Mo4 C16'
_cell_volume   326.88646166
_cell_formula_units_Z   4
loop_
 _symmetry_equiv_pos_site_id
 _symmetry_equiv_pos_as_xyz
  1  'x, y, z'
loop_
 _atom_site_type_symbol
 _atom_site_label
 _atom_site_symmetry_multiplicity
 _atom_site_fract_x
 _atom_site_fract_y
 _atom_site_fract_z
 _atom_site_occupancy
  Mo  Mo0  1  0.38423270  0.12470746  0.02243117  1
  Mo  Mo1  1  0.25060523  0.25048878  0.50266614  1
  Mo  Mo2  1  0.12570765  0.87632593  0.49474176  1
  Mo  Mo3  1  0.86489230  0.12533573  0.48874074  1
  C  C4  1  0.50001776  0.75046078  0.25011919  1
  C  C5  1  0.24965854  0.99715259  0.24785043  1
  C  C6  1  0.37540938  0.37723138  0.25128169  1
  C  C7  1  0.12493907  0.62430428  0.25131896  1
  C  C8  1  0.87532663  0.87462606  0.24793871  1
  C  C9  1  0.00019281  0.25008504  0.24704633  1
  C  C10  1  0.75032965  0.50055512  0.25103155  1
  C  C11  1  0.62502003  0.12530548  0.25305261  1
  C  C12  1  0.37512003  0.87472031  0.74890870  1
  C  C13  1  0.50029987  0.24967999  0.75082183  1
  C  C14  1  0.24897277  0.49939350  0.75009317  1
  C  C15  1  0.00068076  0.75152223  0.74860187  1
  C  C16  1  0.74995496  0.99977013  0.74947789  1
  C  C17  1  0.12488775  0.12627626  0.75384682  1
  C  C18  1  0.87556084  0.37535943  0.74970784  1
  C  C19  1  0.62451477  0.62438381  0.74921057  1
  Ti  Ti20  1  0.12343085  0.37557755  0.00329761  1
  Ti  Ti21  1  0.25100985  0.74811794  0.99757570  1
  Ti  Ti22  1  0.99889295  0.99968212  0.99541645  1
  Ti  Ti23  1  0.75030627  0.25210353  0.99734437  1
  Ti  Ti24  1  0.87455657  0.62553602  0.99685817  1
  Ti  Ti25  1  0.62547743  0.87258982  0.99557001  1
  Ti  Ti26  1  0.49976794  0.49920699  0.00230267  1
  Ti  Ti27  1  0.37634500  0.62419614  0.50026934  1
  Ti  Ti28  1  0.62563249  0.37795464  0.50378792  1
  Ti  Ti29  1  0.99900314  0.50026950  0.49971139  1
  Ti  Ti30  1  0.74971527  0.74947719  0.49661350  1
  Ti  Ti31  1  0.49953872  0.99760427  0.50236486  1
