# generated using pymatgen
data_HfTi3C4
_symmetry_space_group_name_H-M   'P 1'
_cell_length_a   8.28612087
_cell_length_b   8.27817770
_cell_length_c   5.41697853
_cell_angle_alpha   102.63170265
_cell_angle_beta   102.53395636
_cell_angle_gamma   98.22834261
_symmetry_Int_Tables_number   1
_chemical_formula_structural   HfTi3C4
_chemical_formula_sum   'Hf4 Ti12 C16'
_cell_volume   346.78122694
_cell_formula_units_Z   4
loop_
 _symmetry_equiv_pos_site_id
 _symmetry_equiv_pos_as_xyz
  1  'x, y, z'
loop_
 _atom_site_type_symbol
 _atom_site_label
 _atom_site_symmetry_multiplicity
 _atom_site_fract_x
 _atom_site_fract_y
 _atom_site_fract_z
 _atom_site_occupancy
  Hf  Hf0  1  0.37838266  0.12582845  0.00039208  1
  Hf  Hf1  1  0.25147117  0.25417481  0.49958930  1
  Hf  Hf2  1  0.12347227  0.86953428  0.49877812  1
  Hf  Hf3  1  0.87207846  0.12534324  0.50048725  1
  C  C4  1  0.50075028  0.74882397  0.25057896  1
  C  C5  1  0.25049565  0.99430636  0.24578252  1
  C  C6  1  0.37930703  0.38460968  0.25009370  1
  C  C7  1  0.12454799  0.61926807  0.24465991  1
  C  C8  1  0.86859465  0.86835220  0.24065723  1
  C  C9  1  0.99681963  0.25405335  0.24121808  1
  C  C10  1  0.74990550  0.50124294  0.25066395  1
  C  C11  1  0.62557797  0.12517679  0.25003237  1
  C  C12  1  0.38037214  0.86880165  0.74945448  1
  C  C13  1  0.50908716  0.25499099  0.74996216  1
  C  C14  1  0.25079642  0.50661261  0.75509903  1
  C  C15  1  0.99534728  0.74518610  0.75470178  1
  C  C16  1  0.74654395  0.99584654  0.75443156  1
  C  C17  1  0.12217441  0.12669042  0.75866503  1
  C  C18  1  0.87433459  0.38110503  0.75459741  1
  C  C19  1  0.62546155  0.62520494  0.74961053  1
  Ti  Ti20  1  0.12384143  0.37961930  0.00126264  1
  Ti  Ti21  1  0.25095262  0.74663692  0.00066917  1
  Ti  Ti22  1  0.99573967  0.99654813  0.99774811  1
  Ti  Ti23  1  0.75063673  0.25318264  0.00095760  1
  Ti  Ti24  1  0.87259599  0.62342215  0.99810826  1
  Ti  Ti25  1  0.62491692  0.87139272  0.99778067  1
  Ti  Ti26  1  0.50286973  0.50425028  0.00259260  1
  Ti  Ti27  1  0.37786404  0.62575331  0.50040439  1
  Ti  Ti28  1  0.62754438  0.37949077  0.50238009  1
  Ti  Ti29  1  0.99794370  0.50119546  0.50002460  1
  Ti  Ti30  1  0.74720987  0.74667083  0.49932038  1
  Ti  Ti31  1  0.50236418  0.99668505  0.49929606  1
