# generated using pymatgen
data_TaTi3C4
_symmetry_space_group_name_H-M   'P 1'
_cell_length_a   8.18653197
_cell_length_b   8.18394882
_cell_length_c   5.36172322
_cell_angle_alpha   102.66502846
_cell_angle_beta   102.65105546
_cell_angle_gamma   98.18550221
_symmetry_Int_Tables_number   1
_chemical_formula_structural   TaTi3C4
_chemical_formula_sum   'Ta4 Ti12 C16'
_cell_volume   335.06663510
_cell_formula_units_Z   4
loop_
 _symmetry_equiv_pos_site_id
 _symmetry_equiv_pos_as_xyz
  1  'x, y, z'
loop_
 _atom_site_type_symbol
 _atom_site_label
 _atom_site_symmetry_multiplicity
 _atom_site_fract_x
 _atom_site_fract_y
 _atom_site_fract_z
 _atom_site_occupancy
  Ta  Ta0  1  0.37757447  0.12478902  0.00281183  1
  Ta  Ta1  1  0.25113564  0.25427603  0.50276185  1
  Ta  Ta2  1  0.12421684  0.87047973  0.49574117  1
  Ta  Ta3  1  0.87205098  0.12561078  0.49940682  1
  C  C4  1  0.50037206  0.74916126  0.24993503  1
  C  C5  1  0.25026139  0.99801373  0.24866160  1
  C  C6  1  0.37625405  0.37795370  0.25085735  1
  C  C7  1  0.12474247  0.62327863  0.24816502  1
  C  C8  1  0.87313930  0.87295251  0.24643628  1
  C  C9  1  0.99903615  0.25168905  0.24739812  1
  C  C10  1  0.74972639  0.50043910  0.25010066  1
  C  C11  1  0.62510650  0.12499812  0.25033881  1
  C  C12  1  0.37684876  0.87282465  0.74972156  1
  C  C13  1  0.50285704  0.25179952  0.75060863  1
  C  C14  1  0.25041220  0.50196453  0.75186184  1
  C  C15  1  0.99868516  0.74829285  0.75025722  1
  C  C16  1  0.74888203  0.99872077  0.75070082  1
  C  C17  1  0.12389642  0.12569815  0.75346230  1
  C  C18  1  0.87436031  0.37687939  0.75142484  1
  C  C19  1  0.62548019  0.62531308  0.75001118  1
  Ti  Ti20  1  0.12339085  0.37832824  0.00240428  1
  Ti  Ti21  1  0.25102481  0.74688422  0.99913504  1
  Ti  Ti22  1  0.99743147  0.99806979  0.99589384  1
  Ti  Ti23  1  0.75003078  0.25266675  0.00138525  1
  Ti  Ti24  1  0.87331498  0.62421775  0.99689531  1
  Ti  Ti25  1  0.62567450  0.87206494  0.99697185  1
  Ti  Ti26  1  0.50216135  0.50284795  0.00396237  1
  Ti  Ti27  1  0.37721447  0.62533559  0.50102515  1
  Ti  Ti28  1  0.62646858  0.37855338  0.50431319  1
  Ti  Ti29  1  0.99800186  0.50139082  0.49958693  1
  Ti  Ti30  1  0.74798842  0.74732877  0.49800916  1
  Ti  Ti31  1  0.50225957  0.99717722  0.49975470  1
