# generated using pymatgen
data_Ti3WC4
_symmetry_space_group_name_H-M   'P 1'
_cell_length_a   8.12148841
_cell_length_b   8.12039248
_cell_length_c   5.31452815
_cell_angle_alpha   102.60893966
_cell_angle_beta   102.52764529
_cell_angle_gamma   98.21721147
_symmetry_Int_Tables_number   1
_chemical_formula_structural   Ti3WC4
_chemical_formula_sum   'Ti12 W4 C16'
_cell_volume   327.16708133
_cell_formula_units_Z   4
loop_
 _symmetry_equiv_pos_site_id
 _symmetry_equiv_pos_as_xyz
  1  'x, y, z'
loop_
 _atom_site_type_symbol
 _atom_site_label
 _atom_site_symmetry_multiplicity
 _atom_site_fract_x
 _atom_site_fract_y
 _atom_site_fract_z
 _atom_site_occupancy
  W  W0  1  0.38412912  0.12568077  0.01954785  1
  W  W1  1  0.25045819  0.25421728  0.50756318  1
  W  W2  1  0.12485338  0.86939872  0.49018494  1
  W  W3  1  0.86483557  0.12754803  0.49296702  1
  C  C4  1  0.50031310  0.75033435  0.24985259  1
  C  C5  1  0.24951665  0.99853417  0.24904344  1
  C  C6  1  0.37475287  0.37564631  0.25129245  1
  C  C7  1  0.12463817  0.62521512  0.25133381  1
  C  C8  1  0.87681432  0.87589638  0.24968643  1
  C  C9  1  0.00092683  0.24984856  0.24949694  1
  C  C10  1  0.75006142  0.50038642  0.25039752  1
  C  C11  1  0.62460879  0.12483436  0.25250169  1
  C  C12  1  0.37414021  0.87559868  0.74881159  1
  C  C13  1  0.49862813  0.24931724  0.75091172  1
  C  C14  1  0.24924326  0.49834989  0.75011556  1
  C  C15  1  0.00126443  0.75160421  0.74675776  1
  C  C16  1  0.75068257  0.00041547  0.74884889  1
  C  C17  1  0.12518844  0.12552990  0.75200535  1
  C  C18  1  0.87523450  0.37455816  0.74928585  1
  C  C19  1  0.62495121  0.62494185  0.74979734  1
  Ti  Ti20  1  0.12288408  0.37721421  0.00554631  1
  Ti  Ti21  1  0.25177518  0.74698820  0.99643222  1
  Ti  Ti22  1  0.99884967  0.99965801  0.99358037  1
  Ti  Ti23  1  0.74982432  0.25251018  0.99915182  1
  Ti  Ti24  1  0.87337025  0.62471638  0.99391074  1
  Ti  Ti25  1  0.62611952  0.87222695  0.99469109  1
  Ti  Ti26  1  0.50112791  0.50049833  0.00465891  1
  Ti  Ti27  1  0.37813475  0.62407138  0.50104644  1
  Ti  Ti28  1  0.62537579  0.37847297  0.50493603  1
  Ti  Ti29  1  0.99772924  0.50045820  0.49891660  1
  Ti  Ti30  1  0.74934534  0.74863106  0.49553938  1
  Ti  Ti31  1  0.50022278  0.99669825  0.50118820  1
