# generated using pymatgen
data_Ti3ReC4
_symmetry_space_group_name_H-M   'P 1'
_cell_length_a   8.09972305
_cell_length_b   8.11724402
_cell_length_c   5.30236065
_cell_angle_alpha   102.93040142
_cell_angle_beta   102.50400865
_cell_angle_gamma   97.99157491
_symmetry_Int_Tables_number   1
_chemical_formula_structural   Ti3ReC4
_chemical_formula_sum   'Ti12 Re4 C16'
_cell_volume   325.21514265
_cell_formula_units_Z   4
loop_
 _symmetry_equiv_pos_site_id
 _symmetry_equiv_pos_as_xyz
  1  'x, y, z'
loop_
 _atom_site_type_symbol
 _atom_site_label
 _atom_site_symmetry_multiplicity
 _atom_site_fract_x
 _atom_site_fract_y
 _atom_site_fract_z
 _atom_site_occupancy
  Re  Re0  1  0.39394793  0.13104779  0.04135807  1
  Re  Re1  1  0.26069072  0.26023264  0.48175711  1
  Re  Re2  1  0.11359631  0.85709012  0.49212696  1
  Re  Re3  1  0.85369000  0.12740683  0.48850230  1
  C  C4  1  0.49975897  0.75321904  0.25117779  1
  C  C5  1  0.24619093  0.99980355  0.25683417  1
  C  C6  1  0.37852034  0.38269191  0.24635998  1
  C  C7  1  0.12533289  0.62305551  0.24846009  1
  C  C8  1  0.87528689  0.87595927  0.25121078  1
  C  C9  1  0.00132629  0.24716617  0.25109001  1
  C  C10  1  0.75031179  0.49983117  0.25172899  1
  C  C11  1  0.62588227  0.12607068  0.25553861  1
  C  C12  1  0.37200773  0.87869078  0.75468213  1
  C  C13  1  0.49566270  0.24663446  0.75392268  1
  C  C14  1  0.24952397  0.49916300  0.74770722  1
  C  C15  1  0.00107947  0.75107479  0.74841627  1
  C  C16  1  0.75006737  0.00083368  0.75116753  1
  C  C17  1  0.12962187  0.12068500  0.74229599  1
  C  C18  1  0.87522295  0.37457257  0.74997684  1
  C  C19  1  0.62455344  0.62629300  0.74955282  1
  Ti  Ti20  1  0.12612340  0.37208637  0.99826138  1
  Ti  Ti21  1  0.25244175  0.74688545  0.99671755  1
  Ti  Ti22  1  0.00245669  0.00264843  0.00107682  1
  Ti  Ti23  1  0.75189522  0.25342505  0.99604641  1
  Ti  Ti24  1  0.87503318  0.62418665  0.99465250  1
  Ti  Ti25  1  0.62753529  0.87154837  0.99492242  1
  Ti  Ti26  1  0.49848152  0.49715757  0.00129072  1
  Ti  Ti27  1  0.37627874  0.62496366  0.49907016  1
  Ti  Ti28  1  0.62476283  0.38050688  0.50379714  1
  Ti  Ti29  1  0.99908867  0.49507180  0.49829172  1
  Ti  Ti30  1  0.74929283  0.75140688  0.49452050  1
  Ti  Ti31  1  0.49433507  0.99859091  0.50748641  1
