# generated using pymatgen
data_Ti3OsC4
_symmetry_space_group_name_H-M   'P 1'
_cell_length_a   8.10509740
_cell_length_b   8.11625423
_cell_length_c   5.31021543
_cell_angle_alpha   102.64496408
_cell_angle_beta   102.71155259
_cell_angle_gamma   98.18132873
_symmetry_Int_Tables_number   1
_chemical_formula_structural   Ti3OsC4
_chemical_formula_sum   'Ti12 Os4 C16'
_cell_volume   325.76960576
_cell_formula_units_Z   4
loop_
 _symmetry_equiv_pos_site_id
 _symmetry_equiv_pos_as_xyz
  1  'x, y, z'
loop_
 _atom_site_type_symbol
 _atom_site_label
 _atom_site_symmetry_multiplicity
 _atom_site_fract_x
 _atom_site_fract_y
 _atom_site_fract_z
 _atom_site_occupancy
  Os  Os0  1  0.40710539  0.12134266  0.01223064  1
  Os  Os1  1  0.25618876  0.27340501  0.49716743  1
  Os  Os2  1  0.11344287  0.84622587  0.49195224  1
  Os  Os3  1  0.84243199  0.12556109  0.48544187  1
  C  C4  1  0.50039149  0.75387876  0.25265522  1
  C  C5  1  0.24845565  0.00700998  0.25764812  1
  C  C6  1  0.37726985  0.37243590  0.24125646  1
  C  C7  1  0.12545290  0.61484029  0.24084628  1
  C  C8  1  0.87909017  0.88066389  0.25819671  1
  C  C9  1  0.00031563  0.24761792  0.25500483  1
  C  C10  1  0.74998859  0.49893090  0.25503795  1
  C  C11  1  0.62341725  0.12475429  0.25031982  1
  C  C12  1  0.36994550  0.87624043  0.75140003  1
  C  C13  1  0.49606006  0.25068739  0.75174763  1
  C  C14  1  0.24889335  0.50339428  0.75407003  1
  C  C15  1  0.00079944  0.75025027  0.75345750  1
  C  C16  1  0.75017646  -0.00010151  0.75287945  1
  C  C17  1  0.12628767  0.11510171  0.72223656  1
  C  C18  1  0.87323569  0.37534562  0.74945389  1
  C  C19  1  0.62455298  0.62611647  0.75076264  1
  Ti  Ti20  1  0.12924209  0.37494489  0.00319856  1
  Ti  Ti21  1  0.25228301  0.74698756  0.99684739  1
  Ti  Ti22  1  0.01045877  0.00587851  0.00333488  1
  Ti  Ti23  1  0.75569290  0.25301699  0.99231603  1
  Ti  Ti24  1  0.88065365  0.62774091  0.00200010  1
  Ti  Ti25  1  0.63169219  0.87014282  0.99534286  1
  Ti  Ti26  1  0.49945243  0.49821080  0.00627970  1
  Ti  Ti27  1  0.37225669  0.62768788  0.50185583  1
  Ti  Ti28  1  0.62106383  0.38420965  0.50918158  1
  Ti  Ti29  1  0.99591349  0.49386207  0.49832739  1
  Ti  Ti30  1  0.75117498  0.75441588  0.49840164  1
  Ti  Ti31  1  0.48661428  0.99920079  0.50914870  1
