# generated using pymatgen
data_Al3BN4
_symmetry_space_group_name_H-M   'P 1'
_cell_length_a   7.70703978
_cell_length_b   7.67682345
_cell_length_c   5.18042529
_cell_angle_alpha   90.19237604
_cell_angle_beta   90.07164726
_cell_angle_gamma   102.33569967
_symmetry_Int_Tables_number   1
_chemical_formula_structural   Al3BN4
_chemical_formula_sum   'Al12 B4 N16'
_cell_volume   299.42425153
_cell_formula_units_Z   4
loop_
 _symmetry_equiv_pos_site_id
 _symmetry_equiv_pos_as_xyz
  1  'x, y, z'
loop_
 _atom_site_type_symbol
 _atom_site_label
 _atom_site_symmetry_multiplicity
 _atom_site_fract_x
 _atom_site_fract_y
 _atom_site_fract_z
 _atom_site_occupancy
  Al  Al0  1  0.99561992  0.49968070  0.33572024  1
  Al  Al1  1  0.25625955  0.25629409  0.32955930  1
  Al  Al2  1  0.12879461  0.37735279  0.84469670  1
  Al  Al3  1  0.50407019  0.99047623  0.32879560  1
  Al  Al4  1  0.38441938  0.12706820  0.84615820  1
  Al  Al5  1  0.85978223  0.62940655  0.83754528  1
  Al  Al6  1  0.85687337  0.11734913  0.16145448  1
  Al  Al7  1  0.74141960  0.25170710  0.67020651  1
  Al  Al8  1  0.12350100  0.86202336  0.16696609  1
  Al  Al9  1  0.98995930  0.99050410  0.65706048  1
  Al  Al10  1  0.26420478  0.74654819  0.67444658  1
  Al  Al11  1  0.50542171  0.51284336  0.66568391  1
  N  N12  1  0.22165556  0.67630240  0.32248743  1
  N  N13  1  0.45353515  0.45505521  0.30588562  1
  N  N14  1  0.32678756  0.56894734  0.87496594  1
  N  N15  1  0.67350807  0.21768782  0.31869849  1
  N  N16  1  0.57434885  0.33498925  0.87311771  1
  N  N17  1  0.91287378  0.91266951  0.31956904  1
  N  N18  1  0.79214751  0.04535530  0.82365670  1
  N  N19  1  0.06730345  0.80929857  0.82465111  1
  N  N20  1  0.78961286  0.57203979  0.19028141  1
  N  N21  1  0.05474355  0.30472242  0.17211150  1
  N  N22  1  0.93894251  0.44196126  0.67755120  1
  N  N23  1  0.31122147  0.05729680  0.17667957  1
  N  N24  1  0.19254130  0.18741231  0.66707078  1
  N  N25  1  0.57574524  0.79637169  0.14699792  1
  N  N26  1  0.46747137  0.93674298  0.68650892  1
  N  N27  1  0.68706730  0.71888162  0.64038963  1
  B  B28  1  0.74068577  0.74959630  0.32009255  1
  B  B29  1  0.63255221  0.87613674  0.81033473  1
  B  B30  1  0.62171279  0.39352839  0.17182754  1
  B  B31  1  0.39521805  0.62375048  0.15882884  1
