# generated using pymatgen
data_Al3SiN4
_symmetry_space_group_name_H-M   'P 1'
_cell_length_a   7.91379728
_cell_length_b   8.07208120
_cell_length_c   5.36451778
_cell_angle_alpha   90.85410225
_cell_angle_beta   90.50836867
_cell_angle_gamma   101.44485241
_symmetry_Int_Tables_number   1
_chemical_formula_structural   Al3SiN4
_chemical_formula_sum   'Al12 Si4 N16'
_cell_volume   335.81398074
_cell_formula_units_Z   4
loop_
 _symmetry_equiv_pos_site_id
 _symmetry_equiv_pos_as_xyz
  1  'x, y, z'
loop_
 _atom_site_type_symbol
 _atom_site_label
 _atom_site_symmetry_multiplicity
 _atom_site_fract_x
 _atom_site_fract_y
 _atom_site_fract_z
 _atom_site_occupancy
  Al  Al0  1  0.00369677  0.49636083  0.33969016  1
  Al  Al1  1  0.23531938  0.23522864  0.34141982  1
  Al  Al2  1  0.11882953  0.36838249  0.84672022  1
  Al  Al3  1  0.50401670  0.02297475  0.32486046  1
  Al  Al4  1  0.37115426  0.11723511  0.83854360  1
  Al  Al5  1  0.87812249  0.63260974  0.83722477  1
  Al  Al6  1  0.84956029  0.10612552  0.15484744  1
  Al  Al7  1  0.75054222  0.26073264  0.65394918  1
  Al  Al8  1  0.12604048  0.85843146  0.16847045  1
  Al  Al9  1  0.00192589  0.98977912  0.65128674  1
  Al  Al10  1  0.25716707  0.73966782  0.66664898  1
  Al  Al11  1  0.50065279  0.50172897  0.71819060  1
  N  N12  1  0.20479434  0.67536989  0.33036079  1
  N  N13  1  0.42875176  0.41053021  0.37502149  1
  N  N14  1  0.30507444  0.56178652  0.86403722  1
  N  N15  1  0.68295021  0.22376034  0.31885624  1
  N  N16  1  0.56499607  0.29973865  0.84785622  1
  N  N17  1  0.93063878  0.91952484  0.32423263  1
  N  N18  1  0.81603782  0.06846741  0.78766016  1
  N  N19  1  0.07050750  0.81211444  0.82745828  1
  N  N20  1  0.81192979  0.57173576  0.18173215  1
  N  N21  1  0.04956680  0.30068497  0.17181882  1
  N  N22  1  0.93746491  0.44431675  0.67515418  1
  N  N23  1  0.30513029  0.05483888  0.16705648  1
  N  N24  1  0.18389271  0.18048747  0.67451283  1
  N  N25  1  0.63124280  0.90344047  0.12658551  1
  N  N26  1  0.45192180  0.93690897  0.65916144  1
  N  N27  1  0.69090729  0.70930668  0.66937176  1
  Si  Si28  1  0.70785075  0.74361005  0.30933553  1
  Si  Si29  1  0.63973957  0.89613911  0.80775263  1
  Si  Si30  1  0.61020744  0.40081120  0.15382556  1
  Si  Si31  1  0.41936706  0.59717030  0.18635765  1
