# generated using pymatgen
data_TiAl3N4
_symmetry_space_group_name_H-M   'P 1'
_cell_length_a   8.13837553
_cell_length_b   8.16862250
_cell_length_c   5.48918539
_cell_angle_alpha   90.55707340
_cell_angle_beta   90.13336712
_cell_angle_gamma   103.24954624
_symmetry_Int_Tables_number   1
_chemical_formula_structural   TiAl3N4
_chemical_formula_sum   'Ti4 Al12 N16'
_cell_volume   355.18291160
_cell_formula_units_Z   4
loop_
 _symmetry_equiv_pos_site_id
 _symmetry_equiv_pos_as_xyz
  1  'x, y, z'
loop_
 _atom_site_type_symbol
 _atom_site_label
 _atom_site_symmetry_multiplicity
 _atom_site_fract_x
 _atom_site_fract_y
 _atom_site_fract_z
 _atom_site_occupancy
  Al  Al0  1  0.00970830  0.49829655  0.33714056  1
  Al  Al1  1  0.23631619  0.23775433  0.33976295  1
  Al  Al2  1  0.12583402  0.37294214  0.83675584  1
  Al  Al3  1  0.49619273  0.01341431  0.33198052  1
  Al  Al4  1  0.36758209  0.12556072  0.83680140  1
  Al  Al5  1  0.88696296  0.62031172  0.83447400  1
  Al  Al6  1  0.87313849  0.12429804  0.16909320  1
  Al  Al7  1  0.75386871  0.25260652  0.66633636  1
  Al  Al8  1  0.12282865  0.87350807  0.16785290  1
  Al  Al9  1  0.99895883  0.99693479  0.66631879  1
  Al  Al10  1  0.24942917  0.75190932  0.66511044  1
  Al  Al11  1  0.49842001  0.49644289  0.66910144  1
  N  N12  1  0.19090674  0.69548209  0.33811908  1
  N  N13  1  0.42472780  0.41965682  0.35200972  1
  N  N14  1  0.31717728  0.56730435  0.82532281  1
  N  N15  1  0.69439493  0.19479953  0.33867131  1
  N  N16  1  0.56332149  0.31146490  0.82727918  1
  N  N17  1  0.94464679  0.94759768  0.33034308  1
  N  N18  1  0.81738294  0.06872872  0.83098306  1
  N  N19  1  0.06756940  0.81634377  0.83329683  1
  N  N20  1  0.83523290  0.56290257  0.16433721  1
  N  N21  1  0.06604485  0.31474650  0.16682972  1
  N  N22  1  0.94757804  0.43805762  0.66698921  1
  N  N23  1  0.31103234  0.06690997  0.16551326  1
  N  N24  1  0.18548309  0.18811770  0.67426074  1
  N  N25  1  0.55977109  0.84204280  0.15114148  1
  N  N26  1  0.43043067  0.95019613  0.65815350  1
  N  N27  1  0.70007464  0.66937864  0.67554849  1
  Ti  Ti28  1  0.73239347  0.73801833  0.33064576  1
  Ti  Ti29  1  0.62015899  0.87343688  0.81254520  1
  Ti  Ti30  1  0.62116205  0.38727519  0.16304332  1
  Ti  Ti31  1  0.39127037  0.62356043  0.17423860  1
