# generated using pymatgen
data_Al3VN4
_symmetry_space_group_name_H-M   'P 1'
_cell_length_a   8.02846002
_cell_length_b   8.00195146
_cell_length_c   5.53598646
_cell_angle_alpha   89.46949106
_cell_angle_beta   90.05549343
_cell_angle_gamma   105.66678117
_symmetry_Int_Tables_number   1
_chemical_formula_structural   Al3VN4
_chemical_formula_sum   'Al12 V4 N16'
_cell_volume   342.42223709
_cell_formula_units_Z   4
loop_
 _symmetry_equiv_pos_site_id
 _symmetry_equiv_pos_as_xyz
  1  'x, y, z'
loop_
 _atom_site_type_symbol
 _atom_site_label
 _atom_site_symmetry_multiplicity
 _atom_site_fract_x
 _atom_site_fract_y
 _atom_site_fract_z
 _atom_site_occupancy
  Al  Al0  1  0.00971455  0.49425842  0.33072559  1
  Al  Al1  1  0.24672739  0.25166836  0.33765978  1
  Al  Al2  1  0.12596123  0.37403480  0.83358040  1
  Al  Al3  1  0.49343904  0.01568146  0.34505909  1
  Al  Al4  1  0.36518530  0.12401250  0.83887873  1
  Al  Al5  1  0.88516917  0.62237750  0.82470817  1
  Al  Al6  1  0.86467766  0.10805832  0.16582434  1
  Al  Al7  1  0.75101248  0.24329135  0.67236595  1
  Al  Al8  1  0.11512643  0.87364231  0.16783708  1
  Al  Al9  1  0.98486914  0.99046821  0.66043426  1
  Al  Al10  1  0.24570226  0.75426628  0.65821778  1
  Al  Al11  1  0.50082417  0.49815223  0.68035965  1
  N  N12  1  0.19804539  0.69961815  0.32813088  1
  N  N13  1  0.45622032  0.45356343  0.34826420  1
  N  N14  1  0.32257459  0.57661283  0.81474313  1
  N  N15  1  0.69740508  0.20266254  0.33938966  1
  N  N16  1  0.56953579  0.31700500  0.83008049  1
  N  N17  1  0.93459749  0.93266988  0.33250509  1
  N  N18  1  0.80833198  0.05760723  0.83616898  1
  N  N19  1  0.07161044  0.82215143  0.83173012  1
  N  N20  1  0.83749749  0.55986857  0.15039720  1
  N  N21  1  0.07037356  0.31445680  0.16333819  1
  N  N22  1  0.94883888  0.44100620  0.66205158  1
  N  N23  1  0.31545123  0.07665489  0.17094398  1
  N  N24  1  0.18894184  0.19400112  0.66651800  1
  N  N25  1  0.57349487  0.85020310  0.19001188  1
  N  N26  1  0.43722319  0.95272193  0.66945390  1
  N  N27  1  0.70307845  0.68861545  0.66907113  1
  V  V28  1  0.70108494  0.69478121  0.31801415  1
  V  V29  1  0.59190251  0.83437953  0.84347892  1
  V  V30  1  0.62767985  0.38300519  0.16234310  1
  V  V31  1  0.39770330  0.63850382  0.15771458  1
