# generated using pymatgen
data_Al3CrN4
_symmetry_space_group_name_H-M   'P 1'
_cell_length_a   8.10049926
_cell_length_b   8.08421973
_cell_length_c   5.43299443
_cell_angle_alpha   90.32557147
_cell_angle_beta   89.98155397
_cell_angle_gamma   103.64368931
_symmetry_Int_Tables_number   1
_chemical_formula_structural   Al3CrN4
_chemical_formula_sum   'Al12 Cr4 N16'
_cell_volume   345.74069116
_cell_formula_units_Z   4
loop_
 _symmetry_equiv_pos_site_id
 _symmetry_equiv_pos_as_xyz
  1  'x, y, z'
loop_
 _atom_site_type_symbol
 _atom_site_label
 _atom_site_symmetry_multiplicity
 _atom_site_fract_x
 _atom_site_fract_y
 _atom_site_fract_z
 _atom_site_occupancy
  Al  Al0  1  0.01179526  0.49491281  0.33538653  1
  Al  Al1  1  0.24269258  0.24651570  0.33442009  1
  Al  Al2  1  0.12696212  0.37431519  0.83840615  1
  Al  Al3  1  0.49654941  0.01890484  0.34041094  1
  Al  Al4  1  0.36965661  0.12692670  0.84047730  1
  Al  Al5  1  0.88484174  0.62393116  0.82521455  1
  Al  Al6  1  0.86534770  0.11366595  0.16550533  1
  Al  Al7  1  0.74926686  0.24633141  0.67216995  1
  Al  Al8  1  0.12005806  0.87037315  0.16748590  1
  Al  Al9  1  0.98884773  0.99178887  0.66200441  1
  Al  Al10  1  0.25105737  0.75265427  0.66168455  1
  Al  Al11  1  0.50093911  0.50038044  0.67296344  1
  N  N12  1  0.19841736  0.69056009  0.32742221  1
  N  N13  1  0.43865573  0.44324868  0.33834715  1
  N  N14  1  0.32149268  0.57216435  0.82832175  1
  N  N15  1  0.69124599  0.20286635  0.33254528  1
  N  N16  1  0.56609462  0.31902588  0.83661805  1
  N  N17  1  0.93497131  0.93281770  0.32804952  1
  N  N18  1  0.80482471  0.05517097  0.83145834  1
  N  N19  1  0.06835091  0.81611816  0.82827799  1
  N  N20  1  0.83390742  0.56321479  0.16176590  1
  N  N21  1  0.06280516  0.30873648  0.16563497  1
  N  N22  1  0.94548027  0.43710099  0.66754127  1
  N  N23  1  0.31051646  0.06709053  0.16998740  1
  N  N24  1  0.18713652  0.19008442  0.66920378  1
  N  N25  1  0.57345234  0.84430584  0.18058521  1
  N  N26  1  0.43687700  0.94924502  0.66699521  1
  N  N27  1  0.69996514  0.68763394  0.66334441  1
  Cr  Cr28  1  0.71563733  0.71245123  0.31892680  1
  Cr  Cr29  1  0.59990258  0.84289682  0.83590320  1
  Cr  Cr30  1  0.63041728  0.40199939  0.16934683  1
  Cr  Cr31  1  0.41183466  0.64256786  0.16359558  1
