# generated using pymatgen
data_MnAl3N4
_symmetry_space_group_name_H-M   'P 1'
_cell_length_a   8.03205159
_cell_length_b   8.04648003
_cell_length_c   5.46601340
_cell_angle_alpha   89.94773772
_cell_angle_beta   90.40884245
_cell_angle_gamma   102.44863699
_symmetry_Int_Tables_number   1
_chemical_formula_structural   MnAl3N4
_chemical_formula_sum   'Mn4 Al12 N16'
_cell_volume   344.95275233
_cell_formula_units_Z   4
loop_
 _symmetry_equiv_pos_site_id
 _symmetry_equiv_pos_as_xyz
  1  'x, y, z'
loop_
 _atom_site_type_symbol
 _atom_site_label
 _atom_site_symmetry_multiplicity
 _atom_site_fract_x
 _atom_site_fract_y
 _atom_site_fract_z
 _atom_site_occupancy
  Al  Al0  1  0.01016773  0.49663592  0.33654728  1
  Al  Al1  1  0.24494509  0.24557549  0.33428377  1
  Al  Al2  1  0.12354502  0.37219651  0.83911270  1
  Al  Al3  1  0.49866548  0.01147006  0.33793100  1
  Al  Al4  1  0.37463096  0.12571211  0.84122807  1
  Al  Al5  1  0.88180321  0.62744367  0.82340851  1
  Al  Al6  1  0.86707086  0.11744292  0.16738371  1
  Al  Al7  1  0.74826858  0.25017070  0.66679201  1
  Al  Al8  1  0.12088347  0.86972870  0.16795877  1
  Al  Al9  1  0.99398550  0.99425185  0.65990787  1
  Al  Al10  1  0.25219101  0.75048653  0.66529410  1
  Al  Al11  1  0.49903025  0.50164671  0.68210690  1
  N  N12  1  0.19740737  0.68797891  0.33202639  1
  N  N13  1  0.44064498  0.44471671  0.34403714  1
  N  N14  1  0.31311790  0.56513659  0.83573777  1
  N  N15  1  0.68795341  0.19705506  0.33164926  1
  N  N16  1  0.56701598  0.31755978  0.83980212  1
  N  N17  1  0.93443342  0.93257604  0.33100778  1
  N  N18  1  0.81292054  0.06361323  0.83100802  1
  N  N19  1  0.06774279  0.81538268  0.83109230  1
  N  N20  1  0.82721978  0.56523911  0.15966773  1
  N  N21  1  0.06209303  0.30953475  0.16669637  1
  N  N22  1  0.94145574  0.43938563  0.66507227  1
  N  N23  1  0.31105100  0.06436428  0.16827500  1
  N  N24  1  0.18952573  0.18965078  0.66715770  1
  N  N25  1  0.56879234  0.83234438  0.16005219  1
  N  N26  1  0.43996798  0.94393412  0.66578107  1
  N  N27  1  0.69167129  0.69200974  0.66218445  1
  Mn  Mn28  1  0.71424658  0.71354869  0.31654001  1
  Mn  Mn29  1  0.62269081  0.86392740  0.83288139  1
  Mn  Mn30  1  0.62716953  0.40508147  0.17445014  1
  Mn  Mn31  1  0.40769266  0.63419946  0.16292618  1
