# generated using pymatgen
data_Al3FeN4
_symmetry_space_group_name_H-M   'P 1'
_cell_length_a   7.99537846
_cell_length_b   8.01230807
_cell_length_c   5.42755257
_cell_angle_alpha   89.86124988
_cell_angle_beta   90.36205492
_cell_angle_gamma   102.74882349
_symmetry_Int_Tables_number   1
_chemical_formula_structural   Al3FeN4
_chemical_formula_sum   'Al12 Fe4 N16'
_cell_volume   339.11802847
_cell_formula_units_Z   4
loop_
 _symmetry_equiv_pos_site_id
 _symmetry_equiv_pos_as_xyz
  1  'x, y, z'
loop_
 _atom_site_type_symbol
 _atom_site_label
 _atom_site_symmetry_multiplicity
 _atom_site_fract_x
 _atom_site_fract_y
 _atom_site_fract_z
 _atom_site_occupancy
  Al  Al0  1  0.00736492  0.49720137  0.33472790  1
  Al  Al1  1  0.24352315  0.24358974  0.33317760  1
  Al  Al2  1  0.12251255  0.37369812  0.83820319  1
  Al  Al3  1  0.49844414  0.00807808  0.33717753  1
  Al  Al4  1  0.37527223  0.12444393  0.84045550  1
  Al  Al5  1  0.87835259  0.62892735  0.81922522  1
  Al  Al6  1  0.86761869  0.11918771  0.16635834  1
  Al  Al7  1  0.74681970  0.24974899  0.66617692  1
  Al  Al8  1  0.12108934  0.86886273  0.16628398  1
  Al  Al9  1  0.99526659  0.99559756  0.66155860  1
  Al  Al10  1  0.25281207  0.75038518  0.66667102  1
  Al  Al11  1  0.49866275  0.50304955  0.68839115  1
  N  N12  1  0.19438922  0.68870797  0.33208049  1
  N  N13  1  0.44009758  0.43922695  0.34463201  1
  N  N14  1  0.31190808  0.56566843  0.83886093  1
  N  N15  1  0.68891305  0.19351913  0.33120575  1
  N  N16  1  0.56622910  0.31700685  0.84088149  1
  N  N17  1  0.93653179  0.93581356  0.33044386  1
  N  N18  1  0.81458054  0.06578719  0.82990063  1
  N  N19  1  0.06709890  0.81564497  0.82957035  1
  N  N20  1  0.82171511  0.56724160  0.15649211  1
  N  N21  1  0.06139856  0.31050410  0.16660947  1
  N  N22  1  0.93939135  0.44024862  0.66395751  1
  N  N23  1  0.31112575  0.06280938  0.16831414  1
  N  N24  1  0.18965588  0.19041687  0.66791797  1
  N  N25  1  0.56768662  0.82561962  0.15533703  1
  N  N26  1  0.44197247  0.94346897  0.66700009  1
  N  N27  1  0.68990113  0.69366295  0.65472243  1
  Fe  Fe28  1  0.72985922  0.72985825  0.31106840  1
  Fe  Fe29  1  0.62810490  0.86543906  0.83943494  1
  Fe  Fe30  1  0.62674110  0.40092817  0.17711688  1
  Fe  Fe31  1  0.40496092  0.62565702  0.17604655  1
