# generated using pymatgen
data_Al3CoN4
_symmetry_space_group_name_H-M   'P 1'
_cell_length_a   8.01359676
_cell_length_b   7.97299574
_cell_length_c   5.41785490
_cell_angle_alpha   89.92722815
_cell_angle_beta   90.29363786
_cell_angle_gamma   102.56059486
_symmetry_Int_Tables_number   1
_chemical_formula_structural   Al3CoN4
_chemical_formula_sum   'Al12 Co4 N16'
_cell_volume   337.87037335
_cell_formula_units_Z   4
loop_
 _symmetry_equiv_pos_site_id
 _symmetry_equiv_pos_as_xyz
  1  'x, y, z'
loop_
 _atom_site_type_symbol
 _atom_site_label
 _atom_site_symmetry_multiplicity
 _atom_site_fract_x
 _atom_site_fract_y
 _atom_site_fract_z
 _atom_site_occupancy
  Al  Al0  1  0.00387262  0.49652314  0.33603429  1
  Al  Al1  1  0.24340276  0.24413669  0.33443085  1
  Al  Al2  1  0.12341689  0.37456246  0.83632331  1
  Al  Al3  1  0.49934440  0.00747927  0.33669141  1
  Al  Al4  1  0.37514814  0.12658396  0.83677515  1
  Al  Al5  1  0.87842220  0.62716607  0.82622427  1
  Al  Al6  1  0.86912764  0.12144340  0.16360954  1
  Al  Al7  1  0.74661048  0.24954905  0.66629018  1
  Al  Al8  1  0.12490803  0.86971323  0.16360335  1
  Al  Al9  1  0.99389209  0.99471270  0.66524399  1
  Al  Al10  1  0.25198655  0.75048338  0.66145578  1
  Al  Al11  1  0.50172273  0.50771015  0.68062964  1
  N  N12  1  0.19227857  0.68733951  0.32950053  1
  N  N13  1  0.43766402  0.43956012  0.35143960  1
  N  N14  1  0.31240432  0.56557728  0.82667750  1
  N  N15  1  0.68975279  0.19286717  0.33110825  1
  N  N16  1  0.56610039  0.32000017  0.83353328  1
  N  N17  1  0.94139630  0.93922321  0.33019185  1
  N  N18  1  0.81229108  0.06410560  0.83101630  1
  N  N19  1  0.06712403  0.81440903  0.83048448  1
  N  N20  1  0.81701244  0.56415342  0.16107775  1
  N  N21  1  0.06248752  0.31121571  0.16556198  1
  N  N22  1  0.93921963  0.43884492  0.66633243  1
  N  N23  1  0.31381882  0.06401993  0.16611864  1
  N  N24  1  0.18763374  0.18915251  0.66807400  1
  N  N25  1  0.57233207  0.81631190  0.16520371  1
  N  N26  1  0.43904618  0.94530456  0.66345291  1
  N  N27  1  0.69572393  0.69585482  0.66128990  1
  Co  Co28  1  0.74198337  0.74044414  0.32585530  1
  Co  Co29  1  0.61826407  0.86375411  0.84943364  1
  Co  Co30  1  0.61808075  0.39442772  0.17379922  1
  Co  Co31  1  0.40353144  0.62337067  0.16253694  1
