# generated using pymatgen
data_Al3NiN4
_symmetry_space_group_name_H-M   'P 1'
_cell_length_a   8.01282740
_cell_length_b   8.03440423
_cell_length_c   5.42671110
_cell_angle_alpha   89.74209597
_cell_angle_beta   89.79602091
_cell_angle_gamma   102.03640017
_symmetry_Int_Tables_number   1
_chemical_formula_structural   Al3NiN4
_chemical_formula_sum   'Al12 Ni4 N16'
_cell_volume   341.67470647
_cell_formula_units_Z   4
loop_
 _symmetry_equiv_pos_site_id
 _symmetry_equiv_pos_as_xyz
  1  'x, y, z'
loop_
 _atom_site_type_symbol
 _atom_site_label
 _atom_site_symmetry_multiplicity
 _atom_site_fract_x
 _atom_site_fract_y
 _atom_site_fract_z
 _atom_site_occupancy
  Al  Al0  1  0.00290391  0.49762594  0.33726468  1
  Al  Al1  1  0.24457845  0.24448005  0.33298872  1
  Al  Al2  1  0.12226871  0.37225359  0.83393074  1
  Al  Al3  1  0.50059579  0.00644849  0.33885114  1
  Al  Al4  1  0.37541630  0.12443023  0.83385603  1
  Al  Al5  1  0.87581380  0.62732371  0.83047650  1
  Al  Al6  1  0.87319534  0.12571926  0.16487527  1
  Al  Al7  1  0.74786605  0.25116780  0.66642366  1
  Al  Al8  1  0.12699630  0.87202917  0.16280460  1
  Al  Al9  1  0.99711482  0.99639214  0.66816211  1
  Al  Al10  1  0.25173870  0.74796346  0.66375106  1
  Al  Al11  1  0.50023931  0.50488135  0.66925201  1
  N  N12  1  0.18977955  0.68880180  0.33168546  1
  N  N13  1  0.43620442  0.44007049  0.33762835  1
  N  N14  1  0.30837945  0.55849481  0.81833883  1
  N  N15  1  0.69087612  0.19044179  0.33429094  1
  N  N16  1  0.56037471  0.31477104  0.82008081  1
  N  N17  1  0.94793503  0.94652509  0.33295957  1
  N  N18  1  0.81738392  0.06951205  0.83426495  1
  N  N19  1  0.06550157  0.81319330  0.83269369  1
  N  N20  1  0.81738387  0.56587407  0.16871844  1
  N  N21  1  0.06350696  0.31358574  0.16680806  1
  N  N22  1  0.93761178  0.43974218  0.66805320  1
  N  N23  1  0.31558341  0.06342261  0.16587134  1
  N  N24  1  0.18755386  0.18703725  0.66740493  1
  N  N25  1  0.57189098  0.81380661  0.17550990  1
  N  N26  1  0.43727727  0.93988211  0.66383263  1
  N  N27  1  0.69098112  0.69344332  0.66389832  1
  Ni  Ni28  1  0.75435944  0.75036266  0.33086169  1
  Ni  Ni29  1  0.62194772  0.87032817  0.85929907  1
  Ni  Ni30  1  0.61752851  0.38370455  0.16704378  1
  Ni  Ni31  1  0.38921285  0.62628518  0.15811950  1
