# generated using pymatgen
data_YAl3N4
_symmetry_space_group_name_H-M   'P 1'
_cell_length_a   8.42318212
_cell_length_b   8.42586972
_cell_length_c   5.67686131
_cell_angle_alpha   89.68348228
_cell_angle_beta   89.54760646
_cell_angle_gamma   104.12254716
_symmetry_Int_Tables_number   1
_chemical_formula_structural   YAl3N4
_chemical_formula_sum   'Y4 Al12 N16'
_cell_volume   390.70081968
_cell_formula_units_Z   4
loop_
 _symmetry_equiv_pos_site_id
 _symmetry_equiv_pos_as_xyz
  1  'x, y, z'
loop_
 _atom_site_type_symbol
 _atom_site_label
 _atom_site_symmetry_multiplicity
 _atom_site_fract_x
 _atom_site_fract_y
 _atom_site_fract_z
 _atom_site_occupancy
  Al  Al0  1  0.99544740  0.49958816  0.33531725  1
  Al  Al1  1  0.24148234  0.23943272  0.34102131  1
  Al  Al2  1  0.12436073  0.37833877  0.81737512  1
  Al  Al3  1  0.49379632  0.99714812  0.34158333  1
  Al  Al4  1  0.36789519  0.12772243  0.81306957  1
  Al  Al5  1  0.88126122  0.61395928  0.83352105  1
  Al  Al6  1  0.89664564  0.13861378  0.17680063  1
  Al  Al7  1  0.76122851  0.24773481  0.66595185  1
  Al  Al8  1  0.13389959  0.89339226  0.16831681  1
  Al  Al9  1  0.01180134  0.01490557  0.68164521  1
  Al  Al10  1  0.22782884  0.75683952  0.66018484  1
  Al  Al11  1  0.49596472  0.48578724  0.65986865  1
  N  N12  1  0.14733897  0.70847048  0.35248770  1
  N  N13  1  0.42756880  0.42037718  0.35710262  1
  N  N14  1  0.31008159  0.57142803  0.78183671  1
  N  N15  1  0.70898296  0.15302836  0.36450078  1
  N  N16  1  0.56211708  0.29722147  0.78274373  1
  N  N17  1  0.98384297  0.98431361  0.34280077  1
  N  N18  1  0.84108661  0.08794611  0.85216084  1
  N  N19  1  0.05792969  0.82229821  0.84718241  1
  N  N20  1  0.83306855  0.54481998  0.14470867  1
  N  N21  1  0.08419980  0.33649385  0.16565489  1
  N  N22  1  0.94418276  0.43868796  0.65967093  1
  N  N23  1  0.33074384  0.07825908  0.15447200  1
  N  N24  1  0.19233758  0.19998514  0.67631948  1
  N  N25  1  0.55164011  0.82199136  0.19472246  1
  N  N26  1  0.40194347  0.94692531  0.64496163  1
  N  N27  1  0.69347005  0.65837325  0.68938291  1
  Y  Y28  1  0.77199083  0.75281359  0.33095941  1
  Y  Y29  1  0.61144705  0.87536810  0.82419519  1
  Y  Y30  1  0.61480146  0.33981255  0.16303062  1
  Y  Y31  1  0.33961396  0.60792371  0.17645064  1
