# generated using pymatgen
data_ZrAl3N4
_symmetry_space_group_name_H-M   'P 1'
_cell_length_a   8.33316034
_cell_length_b   8.34479581
_cell_length_c   5.58284125
_cell_angle_alpha   90.39871883
_cell_angle_beta   90.08196919
_cell_angle_gamma   103.90155021
_symmetry_Int_Tables_number   1
_chemical_formula_structural   ZrAl3N4
_chemical_formula_sum   'Zr4 Al12 N16'
_cell_volume   376.84043139
_cell_formula_units_Z   4
loop_
 _symmetry_equiv_pos_site_id
 _symmetry_equiv_pos_as_xyz
  1  'x, y, z'
loop_
 _atom_site_type_symbol
 _atom_site_label
 _atom_site_symmetry_multiplicity
 _atom_site_fract_x
 _atom_site_fract_y
 _atom_site_fract_z
 _atom_site_occupancy
  Al  Al0  1  0.00941436  0.49888420  0.34001328  1
  Al  Al1  1  0.22717517  0.22805375  0.34175137  1
  Al  Al2  1  0.12750073  0.37395885  0.83207415  1
  Al  Al3  1  0.49208677  0.01582480  0.33236600  1
  Al  Al4  1  0.36426501  0.12730408  0.82921775  1
  Al  Al5  1  0.89635297  0.61639643  0.83671777  1
  Al  Al6  1  0.88047246  0.13091236  0.16953911  1
  Al  Al7  1  0.75846804  0.25163463  0.66639645  1
  Al  Al8  1  0.12554379  0.88000812  0.16709935  1
  Al  Al9  1  0.00157086  0.00240560  0.67297144  1
  Al  Al10  1  0.24330633  0.75719242  0.66328218  1
  Al  Al11  1  0.49891055  0.49542892  0.66014675  1
  N  N12  1  0.17683131  0.70292940  0.34665832  1
  N  N13  1  0.41380521  0.40146579  0.36102412  1
  N  N14  1  0.31692155  0.57131223  0.80950399  1
  N  N15  1  0.70102529  0.18455647  0.34735262  1
  N  N16  1  0.56101030  0.30505648  0.80714541  1
  N  N17  1  0.96126009  0.96590504  0.33132031  1
  N  N18  1  0.82396294  0.07487353  0.83650330  1
  N  N19  1  0.06669386  0.81922060  0.83739344  1
  N  N20  1  0.84584307  0.55885295  0.15900972  1
  N  N21  1  0.07231412  0.32287901  0.16662462  1
  N  N22  1  0.95112267  0.43595304  0.66640051  1
  N  N23  1  0.31383364  0.07085202  0.15961828  1
  N  N24  1  0.18376217  0.18976949  0.67949372  1
  N  N25  1  0.55290546  0.85004348  0.15800220  1
  N  N26  1  0.41736859  0.95445764  0.65040292  1
  N  N27  1  0.70958788  0.65301588  0.68497181  1
  Zr  Zr28  1  0.73901026  0.74219664  0.33526898  1
  Zr  Zr29  1  0.61206633  0.86684287  0.80492635  1
  Zr  Zr30  1  0.61888080  0.37737987  0.15984503  1
  Zr  Zr31  1  0.37672742  0.61443343  0.18695873  1
