# generated using pymatgen
data_NbAl3N4
_symmetry_space_group_name_H-M   'P 1'
_cell_length_a   8.16771209
_cell_length_b   8.16552190
_cell_length_c   5.68267873
_cell_angle_alpha   89.88335336
_cell_angle_beta   90.12312563
_cell_angle_gamma   107.11519707
_symmetry_Int_Tables_number   1
_chemical_formula_structural   NbAl3N4
_chemical_formula_sum   'Nb4 Al12 N16'
_cell_volume   362.21330499
_cell_formula_units_Z   4
loop_
 _symmetry_equiv_pos_site_id
 _symmetry_equiv_pos_as_xyz
  1  'x, y, z'
loop_
 _atom_site_type_symbol
 _atom_site_label
 _atom_site_symmetry_multiplicity
 _atom_site_fract_x
 _atom_site_fract_y
 _atom_site_fract_z
 _atom_site_occupancy
  Al  Al0  1  0.00679102  0.49671824  0.33004823  1
  Al  Al1  1  0.25034779  0.25274506  0.34339166  1
  Al  Al2  1  0.13075298  0.38007167  0.82511882  1
  Al  Al3  1  0.49490428  0.01528417  0.34601654  1
  Al  Al4  1  0.36373681  0.12743286  0.83138414  1
  Al  Al5  1  0.89056834  0.61992550  0.82739329  1
  Al  Al6  1  0.87445494  0.11472146  0.16730789  1
  Al  Al7  1  0.75925324  0.24107392  0.66739842  1
  Al  Al8  1  0.11712594  0.88046626  0.16599782  1
  Al  Al9  1  0.98792907  0.99490722  0.66289798  1
  Al  Al10  1  0.23444197  0.76121217  0.64596934  1
  Al  Al11  1  0.49767848  0.48997584  0.71471664  1
  N  N12  1  0.18382092  0.70738542  0.32857176  1
  N  N13  1  0.45620431  0.44649019  0.39231451  1
  N  N14  1  0.31868349  0.59268686  0.78585340  1
  N  N15  1  0.70757383  0.19103842  0.34580644  1
  N  N16  1  0.57700313  0.30475279  0.80698866  1
  N  N17  1  0.94543090  0.94572957  0.33325781  1
  N  N18  1  0.81599933  0.06252909  0.84094444  1
  N  N19  1  0.07068564  0.82850308  0.83301044  1
  N  N20  1  0.84075326  0.55117136  0.13835442  1
  N  N21  1  0.08640295  0.33049088  0.16256539  1
  N  N22  1  0.95302127  0.44318926  0.65876940  1
  N  N23  1  0.32639492  0.08625492  0.16769216  1
  N  N24  1  0.18987901  0.19809484  0.66863164  1
  N  N25  1  0.56358051  0.84826367  0.19170164  1
  N  N26  1  0.42804462  0.95687231  0.66050693  1
  N  N27  1  0.70828885  0.68401833  0.68322764  1
  Nb  Nb28  1  0.69575977  0.68593927  0.32192533  1
  Nb  Nb29  1  0.58134398  0.83149183  0.84148729  1
  Nb  Nb30  1  0.60867411  0.36605776  0.15583129  1
  Nb  Nb31  1  0.37447032  0.60450577  0.15491863  1
