# generated using pymatgen
data_Al3MoN4
_symmetry_space_group_name_H-M   'P 1'
_cell_length_a   8.18351852
_cell_length_b   8.15753903
_cell_length_c   5.54525640
_cell_angle_alpha   89.44449198
_cell_angle_beta   89.96844259
_cell_angle_gamma   105.15432546
_symmetry_Int_Tables_number   1
_chemical_formula_structural   Al3MoN4
_chemical_formula_sum   'Al12 Mo4 N16'
_cell_volume   357.29495250
_cell_formula_units_Z   4
loop_
 _symmetry_equiv_pos_site_id
 _symmetry_equiv_pos_as_xyz
  1  'x, y, z'
loop_
 _atom_site_type_symbol
 _atom_site_label
 _atom_site_symmetry_multiplicity
 _atom_site_fract_x
 _atom_site_fract_y
 _atom_site_fract_z
 _atom_site_occupancy
  Al  Al0  1  0.01493706  0.49246322  0.33973457  1
  Al  Al1  1  0.23257984  0.23684475  0.33483237  1
  Al  Al2  1  0.12888911  0.37344688  0.83501018  1
  Al  Al3  1  0.49129589  0.02619705  0.34552087  1
  Al  Al4  1  0.36312752  0.12502778  0.83656163  1
  Al  Al5  1  0.89534447  0.61976814  0.82634726  1
  Al  Al6  1  0.86463099  0.11401294  0.16197149  1
  Al  Al7  1  0.75116396  0.24187759  0.67244590  1
  Al  Al8  1  0.11747440  0.87396879  0.16764512  1
  Al  Al9  1  0.98815327  0.99401054  0.66808612  1
  Al  Al10  1  0.24788548  0.75827928  0.66310380  1
  Al  Al11  1  0.49813751  0.49192342  0.65886063  1
  N  N12  1  0.18933900  0.69972485  0.33827353  1
  N  N13  1  0.42850999  0.42597054  0.34181991  1
  N  N14  1  0.32640595  0.57427179  0.81127401  1
  N  N15  1  0.69769091  0.20229931  0.33913731  1
  N  N16  1  0.56375950  0.31374356  0.82010938  1
  N  N17  1  0.94409486  0.94577154  0.33186304  1
  N  N18  1  0.80832881  0.05683756  0.83292296  1
  N  N19  1  0.07032790  0.81998161  0.83308506  1
  N  N20  1  0.85163895  0.56466708  0.15720445  1
  N  N21  1  0.06596166  0.31361421  0.16303318  1
  N  N22  1  0.95015745  0.43538360  0.66765879  1
  N  N23  1  0.31004230  0.07101001  0.16603402  1
  N  N24  1  0.18460341  0.19131487  0.67100575  1
  N  N25  1  0.57454607  0.86676466  0.18697082  1
  N  N26  1  0.42752881  0.95811589  0.66112181  1
  N  N27  1  0.71146456  0.67151086  0.67396150  1
  Mo  Mo28  1  0.71879360  0.71738095  0.32343233  1
  Mo  Mo29  1  0.58402265  0.81794781  0.83488671  1
  Mo  Mo30  1  0.63485144  0.39957286  0.15762580  1
  Mo  Mo31  1  0.40431269  0.64629602  0.17845970  1
