# generated using pymatgen
data_HfAl3N4
_symmetry_space_group_name_H-M   'P 1'
_cell_length_a   8.32148979
_cell_length_b   8.31457772
_cell_length_c   5.56624361
_cell_angle_alpha   90.46430449
_cell_angle_beta   90.15066182
_cell_angle_gamma   103.71528100
_symmetry_Int_Tables_number   1
_chemical_formula_structural   HfAl3N4
_chemical_formula_sum   'Hf4 Al12 N16'
_cell_volume   374.12865810
_cell_formula_units_Z   4
loop_
 _symmetry_equiv_pos_site_id
 _symmetry_equiv_pos_as_xyz
  1  'x, y, z'
loop_
 _atom_site_type_symbol
 _atom_site_label
 _atom_site_symmetry_multiplicity
 _atom_site_fract_x
 _atom_site_fract_y
 _atom_site_fract_z
 _atom_site_occupancy
  Al  Al0  1  0.00979715  0.49742940  0.34109801  1
  Al  Al1  1  0.22620595  0.22785687  0.34200044  1
  Al  Al2  1  0.12703549  0.37227567  0.83530656  1
  Al  Al3  1  0.49168256  0.01590587  0.33062460  1
  Al  Al4  1  0.36478414  0.12936850  0.82992419  1
  Al  Al5  1  0.90024110  0.61693023  0.83856234  1
  Al  Al6  1  0.87679454  0.12813259  0.16816465  1
  Al  Al7  1  0.75667472  0.25233738  0.66528900  1
  Al  Al8  1  0.12542528  0.87805472  0.16734538  1
  Al  Al9  1  0.00111395  0.99910072  0.67211926  1
  Al  Al10  1  0.24830436  0.75629439  0.66446464  1
  Al  Al11  1  0.50006395  0.50482412  0.65644252  1
  N  N12  1  0.17980739  0.70062596  0.34672828  1
  N  N13  1  0.41151112  0.40103148  0.35911348  1
  N  N14  1  0.31523527  0.56979333  0.82123031  1
  N  N15  1  0.69825476  0.18747841  0.34308708  1
  N  N16  1  0.56179910  0.31010663  0.80951700  1
  N  N17  1  0.95500787  0.95897878  0.33020633  1
  N  N18  1  0.82046453  0.07126306  0.83167536  1
  N  N19  1  0.07028082  0.81858110  0.83737004  1
  N  N20  1  0.84525119  0.55948659  0.16153630  1
  N  N21  1  0.06770887  0.31802851  0.16745632  1
  N  N22  1  0.95106882  0.43448870  0.66762548  1
  N  N23  1  0.31174250  0.06956593  0.16007268  1
  N  N24  1  0.18200947  0.18769948  0.67887857  1
  N  N25  1  0.55439211  0.85177623  0.15094727  1
  N  N26  1  0.42081738  0.95713225  0.65159430  1
  N  N27  1  0.71828497  0.66142201  0.68496103  1
  Hf  Hf28  1  0.73707016  0.73969258  0.33380341  1
  Hf  Hf29  1  0.61261315  0.86660990  0.80148616  1
  Hf  Hf30  1  0.61738541  0.38061525  0.16021710  1
  Hf  Hf31  1  0.38117188  0.61711335  0.19115187  1
