# generated using pymatgen
data_TaAl3N4
_symmetry_space_group_name_H-M   'P 1'
_cell_length_a   8.19926740
_cell_length_b   8.25477531
_cell_length_c   5.54573024
_cell_angle_alpha   91.50822881
_cell_angle_beta   89.86202924
_cell_angle_gamma   103.53795562
_symmetry_Int_Tables_number   1
_chemical_formula_structural   TaAl3N4
_chemical_formula_sum   'Ta4 Al12 N16'
_cell_volume   364.79398434
_cell_formula_units_Z   4
loop_
 _symmetry_equiv_pos_site_id
 _symmetry_equiv_pos_as_xyz
  1  'x, y, z'
loop_
 _atom_site_type_symbol
 _atom_site_label
 _atom_site_symmetry_multiplicity
 _atom_site_fract_x
 _atom_site_fract_y
 _atom_site_fract_z
 _atom_site_occupancy
  Al  Al0  1  0.01086874  0.49542486  0.33991175  1
  Al  Al1  1  0.23566786  0.23575047  0.34415725  1
  Al  Al2  1  0.12808026  0.37500052  0.83717405  1
  Al  Al3  1  0.50040363  0.01537112  0.32670035  1
  Al  Al4  1  0.36543750  0.12506985  0.83625514  1
  Al  Al5  1  0.89265115  0.61726014  0.84058211  1
  Al  Al6  1  0.87335267  0.12933924  0.16479390  1
  Al  Al7  1  0.75861520  0.24933716  0.66385624  1
  Al  Al8  1  0.12563014  0.87465162  0.15995779  1
  Al  Al9  1  0.99437508  0.00002466  0.66603175  1
  Al  Al10  1  0.23952935  0.75491052  0.65186456  1
  Al  Al11  1  0.49223226  0.48621480  0.70665555  1
  N  N12  1  0.18367196  0.69330351  0.32950883  1
  N  N13  1  0.42066040  0.41679059  0.39264510  1
  N  N14  1  0.30846006  0.58323374  0.81722877  1
  N  N15  1  0.69357765  0.19668200  0.33907550  1
  N  N16  1  0.56989799  0.29580275  0.82722656  1
  N  N17  1  0.95263092  0.95640375  0.32233943  1
  N  N18  1  0.81612322  0.06950291  0.83204328  1
  N  N19  1  0.06269333  0.81934729  0.82810643  1
  N  N20  1  0.83970845  0.55910838  0.16782998  1
  N  N21  1  0.07060057  0.31558065  0.16626158  1
  N  N22  1  0.95097428  0.43549687  0.66821820  1
  N  N23  1  0.31444540  0.06713445  0.16328216  1
  N  N24  1  0.18517245  0.18826571  0.67805304  1
  N  N25  1  0.57299549  0.84838175  0.14315962  1
  N  N26  1  0.41876247  0.95108638  0.64688920  1
  N  N27  1  0.70137379  0.64812266  0.69136535  1
  Ta  Ta28  1  0.73205154  0.75596749  0.34861355  1
  Ta  Ta29  1  0.61150970  0.86125534  0.76818691  1
  Ta  Ta30  1  0.61355308  0.40008631  0.16178299  1
  Ta  Ta31  1  0.40429340  0.62009250  0.17024309  1
