# generated using pymatgen
data_Al3WN4
_symmetry_space_group_name_H-M   'P 1'
_cell_length_a   8.16890082
_cell_length_b   8.18497191
_cell_length_c   5.47642968
_cell_angle_alpha   90.59606484
_cell_angle_beta   89.80102339
_cell_angle_gamma   103.37528012
_symmetry_Int_Tables_number   1
_chemical_formula_structural   Al3WN4
_chemical_formula_sum   'Al12 W4 N16'
_cell_volume   356.21479876
_cell_formula_units_Z   4
loop_
 _symmetry_equiv_pos_site_id
 _symmetry_equiv_pos_as_xyz
  1  'x, y, z'
loop_
 _atom_site_type_symbol
 _atom_site_label
 _atom_site_symmetry_multiplicity
 _atom_site_fract_x
 _atom_site_fract_y
 _atom_site_fract_z
 _atom_site_occupancy
  Al  Al0  1  0.01552565  0.49581173  0.34629244  1
  Al  Al1  1  0.22720010  0.23392540  0.34654933  1
  Al  Al2  1  0.12704770  0.37106250  0.84274697  1
  Al  Al3  1  0.49169231  0.02875586  0.34799216  1
  Al  Al4  1  0.36499504  0.11961901  0.84621468  1
  Al  Al5  1  0.89434042  0.62186355  0.83014512  1
  Al  Al6  1  0.86090728  0.12864925  0.16031853  1
  Al  Al7  1  0.75475663  0.24695703  0.66877370  1
  Al  Al8  1  0.12483261  0.87152441  0.16440084  1
  Al  Al9  1  0.99251942  0.99728088  0.67758891  1
  Al  Al10  1  0.25001720  0.75610472  0.65319447  1
  Al  Al11  1  0.49836373  0.48743180  0.68114712  1
  N  N12  1  0.19217332  0.69207841  0.32771670  1
  N  N13  1  0.41672161  0.41461601  0.37441206  1
  N  N14  1  0.31637471  0.57336286  0.81522100  1
  N  N15  1  0.68538793  0.20989986  0.33905191  1
  N  N16  1  0.56547677  0.30572328  0.83875435  1
  N  N17  1  0.94498485  0.95485668  0.32800378  1
  N  N18  1  0.80903312  0.06065518  0.82875009  1
  N  N19  1  0.06968279  0.81769534  0.82848602  1
  N  N20  1  0.84466304  0.56198954  0.16822370  1
  N  N21  1  0.06147743  0.31174430  0.16970910  1
  N  N22  1  0.95206104  0.43216942  0.67404913  1
  N  N23  1  0.30449842  0.06732903  0.17313967  1
  N  N24  1  0.18436858  0.18526153  0.68311240  1
  N  N25  1  0.56615984  0.87618715  0.15445659  1
  N  N26  1  0.42996301  0.95216385  0.66486944  1
  N  N27  1  0.71695013  0.63913201  0.63161607  1
  W  W28  1  0.73271511  0.76295013  0.31357687  1
  W  W29  1  0.60164949  0.81428634  0.80277621  1
  W  W30  1  0.61924983  0.42039221  0.15576871  1
  W  W31  1  0.42421089  0.62852075  0.16294193  1
