# generated using pymatgen
data_Al3ReN4
_symmetry_space_group_name_H-M   'P 1'
_cell_length_a   8.13933014
_cell_length_b   8.22673749
_cell_length_c   5.44936388
_cell_angle_alpha   89.83610127
_cell_angle_beta   89.54650585
_cell_angle_gamma   104.16346942
_symmetry_Int_Tables_number   1
_chemical_formula_structural   Al3ReN4
_chemical_formula_sum   'Al12 Re4 N16'
_cell_volume   353.78262233
_cell_formula_units_Z   4
loop_
 _symmetry_equiv_pos_site_id
 _symmetry_equiv_pos_as_xyz
  1  'x, y, z'
loop_
 _atom_site_type_symbol
 _atom_site_label
 _atom_site_symmetry_multiplicity
 _atom_site_fract_x
 _atom_site_fract_y
 _atom_site_fract_z
 _atom_site_occupancy
  Al  Al0  1  0.02152221  0.49131954  0.34757420  1
  Al  Al1  1  0.22724421  0.23314588  0.34159972  1
  Al  Al2  1  0.12558694  0.36577135  0.84216624  1
  Al  Al3  1  0.49208718  0.03655393  0.34353264  1
  Al  Al4  1  0.36413114  0.12260122  0.84369902  1
  Al  Al5  1  0.89469482  0.61863550  0.83607062  1
  Al  Al6  1  0.86176368  0.11748668  0.16673544  1
  Al  Al7  1  0.75192823  0.24574784  0.67096092  1
  Al  Al8  1  0.12046227  0.86975958  0.16937964  1
  Al  Al9  1  0.99015849  0.98911599  0.67038726  1
  Al  Al10  1  0.25702079  0.75684266  0.66227949  1
  Al  Al11  1  0.50139110  0.48694480  0.66886489  1
  N  N12  1  0.19937187  0.69337604  0.33259258  1
  N  N13  1  0.41092885  0.42704465  0.35444467  1
  N  N14  1  0.32170795  0.56333515  0.81157926  1
  N  N15  1  0.69244654  0.21065922  0.33384597  1
  N  N16  1  0.56385454  0.31009215  0.83443345  1
  N  N17  1  0.94076408  0.94379011  0.33081077  1
  N  N18  1  0.80713870  0.05652048  0.82938729  1
  N  N19  1  0.07241655  0.81443371  0.83048218  1
  N  N20  1  0.85491782  0.56158775  0.17478515  1
  N  N21  1  0.06038744  0.30702784  0.16982207  1
  N  N22  1  0.95051831  0.43214232  0.67650279  1
  N  N23  1  0.30336098  0.06805902  0.17153197  1
  N  N24  1  0.18171926  0.18370699  0.67893912  1
  N  N25  1  0.56918110  0.88234832  0.16600657  1
  N  N26  1  0.43178928  0.95987177  0.66058999  1
  N  N27  1  0.71418647  0.65878835  0.65894379  1
  Re  Re28  1  0.71363289  0.73240576  0.29841447  1
  Re  Re29  1  0.60352628  0.82760342  0.80848600  1
  Re  Re30  1  0.62070173  0.42233937  0.16930376  1
  Re  Re31  1  0.41945830  0.65094263  0.14584808  1
