# generated using pymatgen
data_Al3OsN4
_symmetry_space_group_name_H-M   'P 1'
_cell_length_a   8.19876067
_cell_length_b   8.21547359
_cell_length_c   5.38225748
_cell_angle_alpha   89.79383209
_cell_angle_beta   89.27458890
_cell_angle_gamma   103.23194946
_symmetry_Int_Tables_number   1
_chemical_formula_structural   Al3OsN4
_chemical_formula_sum   'Al12 Os4 N16'
_cell_volume   352.87028133
_cell_formula_units_Z   4
loop_
 _symmetry_equiv_pos_site_id
 _symmetry_equiv_pos_as_xyz
  1  'x, y, z'
loop_
 _atom_site_type_symbol
 _atom_site_label
 _atom_site_symmetry_multiplicity
 _atom_site_fract_x
 _atom_site_fract_y
 _atom_site_fract_z
 _atom_site_occupancy
  Al  Al0  1  0.01937757  0.49221207  0.34930451  1
  Al  Al1  1  0.23340480  0.23817015  0.34212087  1
  Al  Al2  1  0.11462695  0.36047375  0.84519812  1
  Al  Al3  1  0.49529872  0.03341122  0.34674560  1
  Al  Al4  1  0.36616990  0.11857467  0.84320341  1
  Al  Al5  1  0.89511428  0.62156175  0.83592181  1
  Al  Al6  1  0.86610968  0.12026163  0.16988942  1
  Al  Al7  1  0.75065380  0.25109470  0.66784848  1
  Al  Al8  1  0.12269178  0.87061670  0.17055229  1
  Al  Al9  1  0.99375807  0.99269881  0.67119781  1
  Al  Al10  1  0.25826402  0.75256774  0.66233335  1
  Al  Al11  1  0.49015725  0.49932705  0.68815947  1
  N  N12  1  0.19530793  0.69001159  0.32892406  1
  N  N13  1  0.42017617  0.44113406  0.35372700  1
  N  N14  1  0.29316523  0.55059006  0.82399635  1
  N  N15  1  0.69195941  0.20554944  0.33112353  1
  N  N16  1  0.55757893  0.31143993  0.83238673  1
  N  N17  1  0.94065109  0.94159637  0.33265521  1
  N  N18  1  0.81590152  0.07117614  0.82735374  1
  N  N19  1  0.07186337  0.81473430  0.83023343  1
  N  N20  1  0.84726176  0.55705712  0.17855314  1
  N  N21  1  0.06047721  0.30513976  0.17935220  1
  N  N22  1  0.94345553  0.43215470  0.67741729  1
  N  N23  1  0.30564621  0.06731927  0.17645546  1
  N  N24  1  0.18564061  0.18360466  0.67895450  1
  N  N25  1  0.56901890  0.87872691  0.15592925  1
  N  N26  1  0.43441592  0.95018302  0.66578461  1
  N  N27  1  0.71559218  0.65498417  0.64107186  1
  Os  Os28  1  0.71765289  0.73676713  0.28571453  1
  Os  Os29  1  0.63019826  0.82798766  0.80684065  1
  Os  Os30  1  0.61651327  0.41857764  0.16389617  1
  Os  Os31  1  0.42189680  0.65029586  0.13715516  1
