# generated using pymatgen
data_Ti15BN16
_symmetry_space_group_name_H-M   'P 1'
_cell_length_a   6.94288248
_cell_length_b   6.94288248
_cell_length_c   8.47584637
_cell_angle_alpha   90.00000000
_cell_angle_beta   90.00000000
_cell_angle_gamma   120.00000001
_symmetry_Int_Tables_number   1
_chemical_formula_structural   Ti15BN16
_chemical_formula_sum   'Ti15 B1 N16'
_cell_volume   353.82892749
_cell_formula_units_Z   1
loop_
 _symmetry_equiv_pos_site_id
 _symmetry_equiv_pos_as_xyz
  1  'x, y, z'
loop_
 _atom_site_type_symbol
 _atom_site_label
 _atom_site_symmetry_multiplicity
 _atom_site_fract_x
 _atom_site_fract_y
 _atom_site_fract_z
 _atom_site_occupancy
  B  B0  1  0.16666667  0.33333333  0.26731411  1
  Ti  Ti1  1  0.32928814  0.17071186  0.97267450  1
  Ti  Ti2  1  0.16666667  0.33333333  0.71271998  1
  Ti  Ti3  1  0.33452919  0.16547081  0.46681709  1
  Ti  Ti4  1  0.17305588  0.83652794  0.21993044  1
  Ti  Ti5  1  0.32928814  0.65857630  0.97267450  1
  Ti  Ti6  1  0.16670021  0.83335010  0.72029013  1
  Ti  Ti7  1  0.33452919  0.66905839  0.46681709  1
  Ti  Ti8  1  0.66347206  0.32694412  0.21993044  1
  Ti  Ti9  1  0.84142370  0.17071186  0.97267450  1
  Ti  Ti10  1  0.66664990  0.33329979  0.72029013  1
  Ti  Ti11  1  0.83094161  0.16547081  0.46681709  1
  Ti  Ti12  1  0.66347206  0.83652794  0.21993044  1
  Ti  Ti13  1  0.83333333  0.66666667  0.97089554  1
  Ti  Ti14  1  0.66664990  0.83335010  0.72029013  1
  Ti  Ti15  1  0.83333333  0.66666667  0.46929597  1
  N  N16  1  0.16666667  0.33333333  0.45909301  1
  N  N17  1  0.30118980  0.19881020  0.22155188  1
  N  N18  1  0.16666667  0.33333333  0.95367114  1
  N  N19  1  0.33273266  0.16726734  0.71844080  1
  N  N20  1  0.16819370  0.83409684  0.46922691  1
  N  N21  1  0.30118980  0.60237962  0.22155188  1
  N  N22  1  0.16971289  0.83485643  0.97191896  1
  N  N23  1  0.33273266  0.66546532  0.71844080  1
  N  N24  1  0.66590316  0.33180630  0.46922691  1
  N  N25  1  0.89762038  0.19881020  0.22155188  1
  N  N26  1  0.66514357  0.33028711  0.97191896  1
  N  N27  1  0.83453468  0.16726734  0.71844080  1
  N  N28  1  0.66590316  0.83409684  0.46922691  1
  N  N29  1  0.83333333  0.66666667  0.21971298  1
  N  N30  1  0.66514357  0.83485643  0.97191896  1
  N  N31  1  0.83333333  0.66666667  0.72074511  1
