# generated using pymatgen
data_Ti15AlN16
_symmetry_space_group_name_H-M   'P 1'
_cell_length_a   7.02039055
_cell_length_b   7.02039055
_cell_length_c   8.46359774
_cell_angle_alpha   90.00000000
_cell_angle_beta   90.00000000
_cell_angle_gamma   119.99999997
_symmetry_Int_Tables_number   1
_chemical_formula_structural   Ti15AlN16
_chemical_formula_sum   'Ti15 Al1 N16'
_cell_volume   361.25027925
_cell_formula_units_Z   1
loop_
 _symmetry_equiv_pos_site_id
 _symmetry_equiv_pos_as_xyz
  1  'x, y, z'
loop_
 _atom_site_type_symbol
 _atom_site_label
 _atom_site_symmetry_multiplicity
 _atom_site_fract_x
 _atom_site_fract_y
 _atom_site_fract_z
 _atom_site_occupancy
  Al  Al0  1  0.16666667  0.33333333  0.22044766  1
  Ti  Ti1  1  0.33355192  0.16644808  0.96901588  1
  Ti  Ti2  1  0.16666667  0.33333333  0.72056607  1
  Ti  Ti3  1  0.33352041  0.16647959  0.47213538  1
  Ti  Ti4  1  0.17453176  0.83726587  0.22048042  1
  Ti  Ti5  1  0.33355192  0.66710385  0.96901588  1
  Ti  Ti6  1  0.16629141  0.83314571  0.72042592  1
  Ti  Ti7  1  0.33352041  0.66704083  0.47213538  1
  Ti  Ti8  1  0.66273413  0.32546824  0.22048042  1
  Ti  Ti9  1  0.83289615  0.16644808  0.96901588  1
  Ti  Ti10  1  0.66685429  0.33370859  0.72042592  1
  Ti  Ti11  1  0.83295917  0.16647959  0.47213538  1
  Ti  Ti12  1  0.66273413  0.83726587  0.22048042  1
  Ti  Ti13  1  0.83333333  0.66666667  0.97214665  1
  Ti  Ti14  1  0.66685429  0.83314571  0.72042592  1
  Ti  Ti15  1  0.83333333  0.66666667  0.46877803  1
  N  N16  1  0.16666667  0.33333333  0.46637032  1
  N  N17  1  0.32321730  0.17678270  0.22050492  1
  N  N18  1  0.16666667  0.33333333  0.97463562  1
  N  N19  1  0.33207214  0.16792786  0.72051857  1
  N  N20  1  0.16757841  0.83378920  0.47049604  1
  N  N21  1  0.32321730  0.64643460  0.22050492  1
  N  N22  1  0.16754828  0.83377414  0.97046950  1
  N  N23  1  0.33207214  0.66414428  0.72051857  1
  N  N24  1  0.66621080  0.33242159  0.47049604  1
  N  N25  1  0.85356540  0.17678270  0.22050492  1
  N  N26  1  0.66622586  0.33245172  0.97046950  1
  N  N27  1  0.83585572  0.16792786  0.72051857  1
  N  N28  1  0.66621080  0.83378920  0.47049604  1
  N  N29  1  0.83333333  0.66666667  0.22045756  1
  N  N30  1  0.66622586  0.83377414  0.97046950  1
  N  N31  1  0.83333333  0.66666667  0.72045818  1
