# generated using pymatgen
data_Ti15SiN16
_symmetry_space_group_name_H-M   'P 1'
_cell_length_a   6.99899971
_cell_length_b   6.99899971
_cell_length_c   8.46304050
_cell_angle_alpha   90.00000000
_cell_angle_beta   90.00000000
_cell_angle_gamma   120.00000004
_symmetry_Int_Tables_number   1
_chemical_formula_structural   Ti15SiN16
_chemical_formula_sum   'Ti15 Si1 N16'
_cell_volume   359.02856391
_cell_formula_units_Z   1
loop_
 _symmetry_equiv_pos_site_id
 _symmetry_equiv_pos_as_xyz
  1  'x, y, z'
loop_
 _atom_site_type_symbol
 _atom_site_label
 _atom_site_symmetry_multiplicity
 _atom_site_fract_x
 _atom_site_fract_y
 _atom_site_fract_z
 _atom_site_occupancy
  Si  Si0  1  0.16666667  0.33333333  0.22061256  1
  Ti  Ti1  1  0.33414469  0.16585531  0.96757177  1
  Ti  Ti2  1  0.16666667  0.33333333  0.72044588  1
  Ti  Ti3  1  0.33403237  0.16596763  0.47322266  1
  Ti  Ti4  1  0.17264162  0.83632080  0.22052962  1
  Ti  Ti5  1  0.33414469  0.66828939  0.96757177  1
  Ti  Ti6  1  0.16618926  0.83309463  0.72049458  1
  Ti  Ti7  1  0.33403237  0.66806473  0.47322266  1
  Ti  Ti8  1  0.66367920  0.32735838  0.22052962  1
  Ti  Ti9  1  0.83171061  0.16585531  0.96757177  1
  Ti  Ti10  1  0.66690537  0.33381074  0.72049458  1
  Ti  Ti11  1  0.83193527  0.16596763  0.47322266  1
  Ti  Ti12  1  0.66367920  0.83632080  0.22052962  1
  Ti  Ti13  1  0.83333333  0.66666667  0.97263932  1
  Ti  Ti14  1  0.66690537  0.83309463  0.72049458  1
  Ti  Ti15  1  0.83333333  0.66666667  0.46812707  1
  N  N16  1  0.16666667  0.33333333  0.46186379  1
  N  N17  1  0.31418113  0.18581887  0.22055710  1
  N  N18  1  0.16666667  0.33333333  0.97923405  1
  N  N19  1  0.33160607  0.16839393  0.72055229  1
  N  N20  1  0.16772964  0.83386482  0.47058678  1
  N  N21  1  0.31418113  0.62836228  0.22055710  1
  N  N22  1  0.16773850  0.83386924  0.97049079  1
  N  N23  1  0.33160607  0.66321214  0.72055229  1
  N  N24  1  0.66613518  0.33227036  0.47058678  1
  N  N25  1  0.87163772  0.18581887  0.22055710  1
  N  N26  1  0.66613076  0.33226150  0.97049079  1
  N  N27  1  0.83678786  0.16839393  0.72055229  1
  N  N28  1  0.66613518  0.83386482  0.47058678  1
  N  N29  1  0.83333333  0.66666667  0.22052822  1
  N  N30  1  0.66613076  0.83386924  0.97049079  1
  N  N31  1  0.83333333  0.66666667  0.72053236  1
