# generated using pymatgen
data_TiN
_symmetry_space_group_name_H-M   'P 1'
_cell_length_a   7.04689201
_cell_length_b   7.04689201
_cell_length_c   8.46305771
_cell_angle_alpha   90.00000000
_cell_angle_beta   90.00000000
_cell_angle_gamma   120.00000003
_symmetry_Int_Tables_number   1
_chemical_formula_structural   TiN
_chemical_formula_sum   'Ti16 N16'
_cell_volume   363.95958955
_cell_formula_units_Z   16
loop_
 _symmetry_equiv_pos_site_id
 _symmetry_equiv_pos_as_xyz
  1  'x, y, z'
loop_
 _atom_site_type_symbol
 _atom_site_label
 _atom_site_symmetry_multiplicity
 _atom_site_fract_x
 _atom_site_fract_y
 _atom_site_fract_z
 _atom_site_occupancy
  Ti  Ti0  1  0.16666667  0.33333333  0.22055784  1
  Ti  Ti1  1  0.33343249  0.16656751  0.97063529  1
  Ti  Ti2  1  0.16666667  0.33333333  0.72044372  1
  Ti  Ti3  1  0.33342177  0.16657823  0.47060882  1
  Ti  Ti4  1  0.16680450  0.83340225  0.22042681  1
  Ti  Ti5  1  0.33343249  0.66686498  0.97063529  1
  Ti  Ti6  1  0.16675529  0.83337764  0.72041601  1
  Ti  Ti7  1  0.33342177  0.66684355  0.47060882  1
  Ti  Ti8  1  0.66659775  0.33319550  0.22042681  1
  Ti  Ti9  1  0.83313502  0.16656751  0.97063529  1
  Ti  Ti10  1  0.66662236  0.33324471  0.72041601  1
  Ti  Ti11  1  0.83315645  0.16657823  0.47060882  1
  Ti  Ti12  1  0.66659775  0.83340225  0.22042681  1
  Ti  Ti13  1  0.83333333  0.66666667  0.97063061  1
  Ti  Ti14  1  0.66662236  0.83337764  0.72041601  1
  Ti  Ti15  1  0.83333333  0.66666667  0.47064938  1
  N  N16  1  0.16666667  0.33333333  0.47043555  1
  N  N17  1  0.33336719  0.16663281  0.22051857  1
  N  N18  1  0.16666667  0.33333333  0.97054125  1
  N  N19  1  0.33338773  0.16661227  0.72048026  1
  N  N20  1  0.16606165  0.83303082  0.47044720  1
  N  N21  1  0.33336719  0.66673437  0.22051857  1
  N  N22  1  0.16614308  0.83307154  0.97041201  1
  N  N23  1  0.33338773  0.66677548  0.72048026  1
  N  N24  1  0.66696918  0.33393835  0.47044720  1
  N  N25  1  0.83326563  0.16663281  0.22051857  1
  N  N26  1  0.66692846  0.33385692  0.97041201  1
  N  N27  1  0.83322452  0.16661227  0.72048026  1
  N  N28  1  0.66696918  0.83303082  0.47044720  1
  N  N29  1  0.83333333  0.66666667  0.22046361  1
  N  N30  1  0.66692846  0.83307154  0.97041201  1
  N  N31  1  0.83333333  0.66666667  0.72044313  1
