# generated using pymatgen
data_Ti15VN16
_symmetry_space_group_name_H-M   'P 1'
_cell_length_a   7.03081640
_cell_length_b   7.03081640
_cell_length_c   8.44192154
_cell_angle_alpha   90.00000000
_cell_angle_beta   90.00000000
_cell_angle_gamma   120.00000001
_symmetry_Int_Tables_number   1
_chemical_formula_structural   Ti15VN16
_chemical_formula_sum   'Ti15 V1 N16'
_cell_volume   361.39609637
_cell_formula_units_Z   1
loop_
 _symmetry_equiv_pos_site_id
 _symmetry_equiv_pos_as_xyz
  1  'x, y, z'
loop_
 _atom_site_type_symbol
 _atom_site_label
 _atom_site_symmetry_multiplicity
 _atom_site_fract_x
 _atom_site_fract_y
 _atom_site_fract_z
 _atom_site_occupancy
  V  V0  1  0.16666667  0.33333333  0.22044431  1
  Ti  Ti1  1  0.33259897  0.16740103  0.97250971  1
  Ti  Ti2  1  0.16666667  0.33333333  0.72058047  1
  Ti  Ti3  1  0.33244138  0.16755862  0.46835679  1
  Ti  Ti4  1  0.16652604  0.83326301  0.22054751  1
  Ti  Ti5  1  0.33259897  0.66519794  0.97250971  1
  Ti  Ti6  1  0.16704207  0.83352103  0.72053978  1
  Ti  Ti7  1  0.33244138  0.66488278  0.46835679  1
  Ti  Ti8  1  0.66673699  0.33347396  0.22054751  1
  Ti  Ti9  1  0.83480206  0.16740103  0.97250971  1
  Ti  Ti10  1  0.66647897  0.33295793  0.72053978  1
  Ti  Ti11  1  0.83511722  0.16755862  0.46835679  1
  Ti  Ti12  1  0.66673699  0.83326301  0.22054751  1
  Ti  Ti13  1  0.83333333  0.66666667  0.96855563  1
  Ti  Ti14  1  0.66647897  0.83352103  0.72053978  1
  Ti  Ti15  1  0.83333333  0.66666667  0.47234880  1
  N  N16  1  0.16666667  0.33333333  0.46987369  1
  N  N17  1  0.33161922  0.16838078  0.22048662  1
  N  N18  1  0.16666667  0.33333333  0.97114596  1
  N  N19  1  0.33336674  0.16663326  0.72050032  1
  N  N20  1  0.16636757  0.83318379  0.46990932  1
  N  N21  1  0.33161922  0.66323846  0.22048662  1
  N  N22  1  0.16635052  0.83317525  0.97114202  1
  N  N23  1  0.33336674  0.66673350  0.72050032  1
  N  N24  1  0.66681621  0.33363243  0.46990932  1
  N  N25  1  0.83676154  0.16838078  0.22048662  1
  N  N26  1  0.66682475  0.33364948  0.97114202  1
  N  N27  1  0.83326650  0.16663326  0.72050032  1
  N  N28  1  0.66681621  0.83318379  0.46990932  1
  N  N29  1  0.83333333  0.66666667  0.22053209  1
  N  N30  1  0.66682475  0.83317525  0.97114202  1
  N  N31  1  0.83333333  0.66666667  0.72054285  1
