# generated using pymatgen
data_Ti15MnN16
_symmetry_space_group_name_H-M   'P 1'
_cell_length_a   7.03401806
_cell_length_b   7.03401806
_cell_length_c   8.41130514
_cell_angle_alpha   90.00000000
_cell_angle_beta   90.00000000
_cell_angle_gamma   120.00000000
_symmetry_Int_Tables_number   1
_chemical_formula_structural   Ti15MnN16
_chemical_formula_sum   'Ti15 Mn1 N16'
_cell_volume   360.41344032
_cell_formula_units_Z   1
loop_
 _symmetry_equiv_pos_site_id
 _symmetry_equiv_pos_as_xyz
  1  'x, y, z'
loop_
 _atom_site_type_symbol
 _atom_site_label
 _atom_site_symmetry_multiplicity
 _atom_site_fract_x
 _atom_site_fract_y
 _atom_site_fract_z
 _atom_site_occupancy
  Mn  Mn0  1  0.16666667  0.33333333  0.22062555  1
  Ti  Ti1  1  0.33158207  0.16841793  0.97549003  1
  Ti  Ti2  1  0.16666667  0.33333333  0.72070887  1
  Ti  Ti3  1  0.33167465  0.16832535  0.46527533  1
  Ti  Ti4  1  0.16322844  0.83161421  0.22039733  1
  Ti  Ti5  1  0.33158207  0.66316415  0.97549003  1
  Ti  Ti6  1  0.16759452  0.83379726  0.72068765  1
  Ti  Ti7  1  0.33167465  0.66334932  0.46527533  1
  Ti  Ti8  1  0.66838579  0.33677156  0.22039733  1
  Ti  Ti9  1  0.83683585  0.16841793  0.97549003  1
  Ti  Ti10  1  0.66620274  0.33240548  0.72068765  1
  Ti  Ti11  1  0.83665068  0.16832535  0.46527533  1
  Ti  Ti12  1  0.66838579  0.83161421  0.22039733  1
  Ti  Ti13  1  0.83333333  0.66666667  0.96691655  1
  Ti  Ti14  1  0.66620274  0.83379726  0.72068765  1
  Ti  Ti15  1  0.83333333  0.66666667  0.47373058  1
  N  N16  1  0.16666667  0.33333333  0.46708463  1
  N  N17  1  0.33668740  0.16331260  0.22049129  1
  N  N18  1  0.16666667  0.33333333  0.97404727  1
  N  N19  1  0.33318113  0.16681887  0.72056235  1
  N  N20  1  0.16767216  0.83383607  0.46956661  1
  N  N21  1  0.33668740  0.67337482  0.22049129  1
  N  N22  1  0.16771301  0.83385650  0.97150529  1
  N  N23  1  0.33318113  0.66636228  0.72056235  1
  N  N24  1  0.66616393  0.33232784  0.46956661  1
  N  N25  1  0.82662518  0.16331260  0.22049129  1
  N  N26  1  0.66614350  0.33228699  0.97150529  1
  N  N27  1  0.83363772  0.16681887  0.72056235  1
  N  N28  1  0.66616393  0.83383607  0.46956661  1
  N  N29  1  0.83333333  0.66666667  0.22047899  1
  N  N30  1  0.66614350  0.83385650  0.97150529  1
  N  N31  1  0.83333333  0.66666667  0.72047994  1
