# generated using pymatgen
data_Ti15FeN16
_symmetry_space_group_name_H-M   'P 1'
_cell_length_a   7.03321151
_cell_length_b   7.03321151
_cell_length_c   8.40870103
_cell_angle_alpha   90.00000000
_cell_angle_beta   90.00000000
_cell_angle_gamma   119.99999996
_symmetry_Int_Tables_number   1
_chemical_formula_structural   Ti15FeN16
_chemical_formula_sum   'Ti15 Fe1 N16'
_cell_volume   360.21923507
_cell_formula_units_Z   1
loop_
 _symmetry_equiv_pos_site_id
 _symmetry_equiv_pos_as_xyz
  1  'x, y, z'
loop_
 _atom_site_type_symbol
 _atom_site_label
 _atom_site_symmetry_multiplicity
 _atom_site_fract_x
 _atom_site_fract_y
 _atom_site_fract_z
 _atom_site_occupancy
  Fe  Fe0  1  0.16666667  0.33333333  0.22055540  1
  Ti  Ti1  1  0.33157689  0.16842311  0.97501926  1
  Ti  Ti2  1  0.16666667  0.33333333  0.72072232  1
  Ti  Ti3  1  0.33163764  0.16836236  0.46571906  1
  Ti  Ti4  1  0.16458182  0.83229091  0.22056622  1
  Ti  Ti5  1  0.33157689  0.66315378  0.97501926  1
  Ti  Ti6  1  0.16757310  0.83378655  0.72063768  1
  Ti  Ti7  1  0.33163764  0.66327529  0.46571906  1
  Ti  Ti8  1  0.66770909  0.33541818  0.22056622  1
  Ti  Ti9  1  0.83684622  0.16842311  0.97501926  1
  Ti  Ti10  1  0.66621345  0.33242690  0.72063768  1
  Ti  Ti11  1  0.83672471  0.16836236  0.46571906  1
  Ti  Ti12  1  0.66770909  0.83229091  0.22056622  1
  Ti  Ti13  1  0.83333333  0.66666667  0.96868281  1
  Ti  Ti14  1  0.66621345  0.83378655  0.72063768  1
  Ti  Ti15  1  0.83333333  0.66666667  0.47228785  1
  N  N16  1  0.16666667  0.33333333  0.46622452  1
  N  N17  1  0.33756069  0.16243931  0.22045149  1
  N  N18  1  0.16666667  0.33333333  0.97479133  1
  N  N19  1  0.33281948  0.16718052  0.72047340  1
  N  N20  1  0.16789978  0.83394989  0.46975874  1
  N  N21  1  0.33756069  0.67512137  0.22045149  1
  N  N22  1  0.16790024  0.83395011  0.97128324  1
  N  N23  1  0.33281948  0.66563898  0.72047340  1
  N  N24  1  0.66605011  0.33210022  0.46975874  1
  N  N25  1  0.82487863  0.16243931  0.22045149  1
  N  N26  1  0.66604989  0.33209976  0.97128324  1
  N  N27  1  0.83436102  0.16718052  0.72047340  1
  N  N28  1  0.66605011  0.83394989  0.46975874  1
  N  N29  1  0.83333333  0.66666667  0.22050391  1
  N  N30  1  0.66604989  0.83395011  0.97128324  1
  N  N31  1  0.83333333  0.66666667  0.72050464  1
