# generated using pymatgen
data_Ti15CoN16
_symmetry_space_group_name_H-M   'P 1'
_cell_length_a   7.03391685
_cell_length_b   7.03391685
_cell_length_c   8.41965864
_cell_angle_alpha   90.00000000
_cell_angle_beta   90.00000000
_cell_angle_gamma   119.99999997
_symmetry_Int_Tables_number   1
_chemical_formula_structural   Ti15CoN16
_chemical_formula_sum   'Ti15 Co1 N16'
_cell_volume   360.76099496
_cell_formula_units_Z   1
loop_
 _symmetry_equiv_pos_site_id
 _symmetry_equiv_pos_as_xyz
  1  'x, y, z'
loop_
 _atom_site_type_symbol
 _atom_site_label
 _atom_site_symmetry_multiplicity
 _atom_site_fract_x
 _atom_site_fract_y
 _atom_site_fract_z
 _atom_site_occupancy
  Co  Co0  1  0.16666667  0.33333333  0.22045504  1
  Ti  Ti1  1  0.33121586  0.16878414  0.97450681  1
  Ti  Ti2  1  0.16666667  0.33333333  0.72049327  1
  Ti  Ti3  1  0.33122204  0.16877796  0.46623747  1
  Ti  Ti4  1  0.16605726  0.83302862  0.22059386  1
  Ti  Ti5  1  0.33121586  0.66243173  0.97450681  1
  Ti  Ti6  1  0.16778092  0.83389046  0.72061852  1
  Ti  Ti7  1  0.33122204  0.66244408  0.46623747  1
  Ti  Ti8  1  0.66697138  0.33394274  0.22059386  1
  Ti  Ti9  1  0.83756827  0.16878414  0.97450681  1
  Ti  Ti10  1  0.66610954  0.33221908  0.72061852  1
  Ti  Ti11  1  0.83755592  0.16877796  0.46623747  1
  Ti  Ti12  1  0.66697138  0.83302862  0.22059386  1
  Ti  Ti13  1  0.83333333  0.66666667  0.96939441  1
  Ti  Ti14  1  0.66610954  0.83389046  0.72061852  1
  Ti  Ti15  1  0.83333333  0.66666667  0.47180006  1
  N  N16  1  0.16666667  0.33333333  0.46886696  1
  N  N17  1  0.33927031  0.16072969  0.22046123  1
  N  N18  1  0.16666667  0.33333333  0.97209771  1
  N  N19  1  0.33258730  0.16741270  0.72046634  1
  N  N20  1  0.16756041  0.83378020  0.46979691  1
  N  N21  1  0.33927031  0.67854063  0.22046123  1
  N  N22  1  0.16754613  0.83377307  0.97124365  1
  N  N23  1  0.33258730  0.66517462  0.72046634  1
  N  N24  1  0.66621980  0.33243959  0.46979691  1
  N  N25  1  0.82145937  0.16072969  0.22046123  1
  N  N26  1  0.66622693  0.33245387  0.97124365  1
  N  N27  1  0.83482538  0.16741270  0.72046634  1
  N  N28  1  0.66621980  0.83378020  0.46979691  1
  N  N29  1  0.83333333  0.66666667  0.22055157  1
  N  N30  1  0.66622693  0.83377307  0.97124365  1
  N  N31  1  0.83333333  0.66666667  0.72056657  1
