# generated using pymatgen
data_Ti15NiN16
_symmetry_space_group_name_H-M   'P 1'
_cell_length_a   7.03841994
_cell_length_b   7.03841993
_cell_length_c   8.43938124
_cell_angle_alpha   90.00000000
_cell_angle_beta   90.00000000
_cell_angle_gamma   120.00000004
_symmetry_Int_Tables_number   1
_chemical_formula_structural   Ti15NiN16
_chemical_formula_sum   'Ti15 Ni1 N16'
_cell_volume   362.06920386
_cell_formula_units_Z   1
loop_
 _symmetry_equiv_pos_site_id
 _symmetry_equiv_pos_as_xyz
  1  'x, y, z'
loop_
 _atom_site_type_symbol
 _atom_site_label
 _atom_site_symmetry_multiplicity
 _atom_site_fract_x
 _atom_site_fract_y
 _atom_site_fract_z
 _atom_site_occupancy
  Ni  Ni0  1  0.16666667  0.33333333  0.22056399  1
  Ti  Ti1  1  0.33092876  0.16907124  0.97265726  1
  Ti  Ti2  1  0.16666667  0.33333333  0.72054548  1
  Ti  Ti3  1  0.33092137  0.16907863  0.46836845  1
  Ti  Ti4  1  0.16758194  0.83379096  0.22049421  1
  Ti  Ti5  1  0.33092876  0.66185754  0.97265726  1
  Ti  Ti6  1  0.16870856  0.83435427  0.72053547  1
  Ti  Ti7  1  0.33092137  0.66184277  0.46836845  1
  Ti  Ti8  1  0.66620904  0.33241806  0.22049421  1
  Ti  Ti9  1  0.83814246  0.16907124  0.97265726  1
  Ti  Ti10  1  0.66564573  0.33129144  0.72053547  1
  Ti  Ti11  1  0.83815723  0.16907863  0.46836845  1
  Ti  Ti12  1  0.66620904  0.83379096  0.22049421  1
  Ti  Ti13  1  0.83333333  0.66666667  0.96957336  1
  Ti  Ti14  1  0.66564573  0.83435427  0.72053547  1
  Ti  Ti15  1  0.83333333  0.66666667  0.47140585  1
  N  N16  1  0.16666667  0.33333333  0.46906574  1
  N  N17  1  0.34154641  0.15845359  0.22045581  1
  N  N18  1  0.16666667  0.33333333  0.97189346  1
  N  N19  1  0.33205899  0.16794101  0.72047569  1
  N  N20  1  0.16753290  0.83376644  0.47018883  1
  N  N21  1  0.34154641  0.68309283  0.22045581  1
  N  N22  1  0.16753330  0.83376664  0.97078393  1
  N  N23  1  0.33205899  0.66411800  0.72047569  1
  N  N24  1  0.66623356  0.33246710  0.47018883  1
  N  N25  1  0.81690717  0.15845359  0.22045581  1
  N  N26  1  0.66623336  0.33246670  0.97078393  1
  N  N27  1  0.83588200  0.16794101  0.72047569  1
  N  N28  1  0.66623356  0.83376644  0.47018883  1
  N  N29  1  0.83333333  0.66666667  0.22053157  1
  N  N30  1  0.66623336  0.83376664  0.97078393  1
  N  N31  1  0.83333333  0.66666667  0.72054157  1
