# generated using pymatgen
data_YTi15N16
_symmetry_space_group_name_H-M   'P 1'
_cell_length_a   7.10080235
_cell_length_b   7.10080235
_cell_length_c   8.56641831
_cell_angle_alpha   90.00000000
_cell_angle_beta   90.00000000
_cell_angle_gamma   120.00000004
_symmetry_Int_Tables_number   1
_chemical_formula_structural   YTi15N16
_chemical_formula_sum   'Y1 Ti15 N16'
_cell_volume   374.06300454
_cell_formula_units_Z   1
loop_
 _symmetry_equiv_pos_site_id
 _symmetry_equiv_pos_as_xyz
  1  'x, y, z'
loop_
 _atom_site_type_symbol
 _atom_site_label
 _atom_site_symmetry_multiplicity
 _atom_site_fract_x
 _atom_site_fract_y
 _atom_site_fract_z
 _atom_site_occupancy
  Y  Y0  1  0.16666667  0.33333333  0.22049785  1
  Ti  Ti1  1  0.33552449  0.16447551  0.96241727  1
  Ti  Ti2  1  0.16666667  0.33333333  0.72019800  1
  Ti  Ti3  1  0.33556040  0.16443960  0.47833647  1
  Ti  Ti4  1  0.16864494  0.83432247  0.22055325  1
  Ti  Ti5  1  0.33552449  0.67104899  0.96241727  1
  Ti  Ti6  1  0.16498482  0.83249241  0.72042792  1
  Ti  Ti7  1  0.33556040  0.67112081  0.47833647  1
  Ti  Ti8  1  0.66567753  0.33135506  0.22055325  1
  Ti  Ti9  1  0.82895101  0.16447551  0.96241727  1
  Ti  Ti10  1  0.66750759  0.33501518  0.72042792  1
  Ti  Ti11  1  0.82887919  0.16443960  0.47833647  1
  Ti  Ti12  1  0.66567753  0.83432247  0.22055325  1
  Ti  Ti13  1  0.83333333  0.66666667  0.97474604  1
  Ti  Ti14  1  0.66750759  0.83249241  0.72042792  1
  Ti  Ti15  1  0.83333333  0.66666667  0.46706439  1
  N  N16  1  0.16666667  0.33333333  0.48197138  1
  N  N17  1  0.34797018  0.15202982  0.22053983  1
  N  N18  1  0.16666667  0.33333333  0.95895364  1
  N  N19  1  0.33325281  0.16674719  0.72044092  1
  N  N20  1  0.16672056  0.83336028  0.47215940  1
  N  N21  1  0.34797018  0.69594038  0.22053983  1
  N  N22  1  0.16674904  0.83337451  0.96888011  1
  N  N23  1  0.33325281  0.66650563  0.72044092  1
  N  N24  1  0.66663972  0.33327944  0.47215940  1
  N  N25  1  0.80405962  0.15202982  0.22053983  1
  N  N26  1  0.66662549  0.33325096  0.96888011  1
  N  N27  1  0.83349437  0.16674719  0.72044092  1
  N  N28  1  0.66663972  0.83336028  0.47215940  1
  N  N29  1  0.83333333  0.66666667  0.22068751  1
  N  N30  1  0.66662549  0.83337451  0.96888011  1
  N  N31  1  0.83333333  0.66666667  0.72061576  1
