# generated using pymatgen
data_Ti15NbN16
_symmetry_space_group_name_H-M   'P 1'
_cell_length_a   7.06335560
_cell_length_b   7.06335560
_cell_length_c   8.48990317
_cell_angle_alpha   90.00000000
_cell_angle_beta   90.00000000
_cell_angle_gamma   120.00000002
_symmetry_Int_Tables_number   1
_chemical_formula_structural   Ti15NbN16
_chemical_formula_sum   'Ti15 Nb1 N16'
_cell_volume   366.82211490
_cell_formula_units_Z   1
loop_
 _symmetry_equiv_pos_site_id
 _symmetry_equiv_pos_as_xyz
  1  'x, y, z'
loop_
 _atom_site_type_symbol
 _atom_site_label
 _atom_site_symmetry_multiplicity
 _atom_site_fract_x
 _atom_site_fract_y
 _atom_site_fract_z
 _atom_site_occupancy
  Nb  Nb0  1  0.16666667  0.33333333  0.22041216  1
  Ti  Ti1  1  0.33374025  0.16625975  0.96988426  1
  Ti  Ti2  1  0.16666667  0.33333333  0.72066395  1
  Ti  Ti3  1  0.33366331  0.16633669  0.47129230  1
  Ti  Ti4  1  0.16422052  0.83211025  0.22037380  1
  Ti  Ti5  1  0.33374025  0.66748050  0.96988426  1
  Ti  Ti6  1  0.16646527  0.83323263  0.72049800  1
  Ti  Ti7  1  0.33366331  0.66732663  0.47129230  1
  Ti  Ti8  1  0.66788975  0.33577948  0.22037380  1
  Ti  Ti9  1  0.83251950  0.16625975  0.96988426  1
  Ti  Ti10  1  0.66676737  0.33353473  0.72049800  1
  Ti  Ti11  1  0.83267337  0.16633669  0.47129230  1
  Ti  Ti12  1  0.66788975  0.83211025  0.22037380  1
  Ti  Ti13  1  0.83333333  0.66666667  0.96838954  1
  Ti  Ti14  1  0.66676737  0.83323263  0.72049800  1
  Ti  Ti15  1  0.83333333  0.66666667  0.47253378  1
  N  N16  1  0.16666667  0.33333333  0.47566305  1
  N  N17  1  0.33764359  0.16235641  0.22046063  1
  N  N18  1  0.16666667  0.33333333  0.96542825  1
  N  N19  1  0.33430693  0.16569307  0.72049850  1
  N  N20  1  0.16590118  0.83295059  0.47062012  1
  N  N21  1  0.33764359  0.67528719  0.22046063  1
  N  N22  1  0.16580187  0.83290093  0.97034391  1
  N  N23  1  0.33430693  0.66861387  0.72049850  1
  N  N24  1  0.66704941  0.33409882  0.47062012  1
  N  N25  1  0.82471281  0.16235641  0.22046063  1
  N  N26  1  0.66709907  0.33419813  0.97034391  1
  N  N27  1  0.83138613  0.16569307  0.72049850  1
  N  N28  1  0.66704941  0.83295059  0.47062012  1
  N  N29  1  0.83333333  0.66666667  0.22048362  1
  N  N30  1  0.66709907  0.83290093  0.97034391  1
  N  N31  1  0.83333333  0.66666667  0.72051109  1
