# generated using pymatgen
data_Ti15MoN16
_symmetry_space_group_name_H-M   'P 1'
_cell_length_a   7.05768628
_cell_length_b   7.05768628
_cell_length_c   8.45233433
_cell_angle_alpha   90.00000000
_cell_angle_beta   90.00000000
_cell_angle_gamma   120.00000000
_symmetry_Int_Tables_number   1
_chemical_formula_structural   Ti15MoN16
_chemical_formula_sum   'Ti15 Mo1 N16'
_cell_volume   364.61287337
_cell_formula_units_Z   1
loop_
 _symmetry_equiv_pos_site_id
 _symmetry_equiv_pos_as_xyz
  1  'x, y, z'
loop_
 _atom_site_type_symbol
 _atom_site_label
 _atom_site_symmetry_multiplicity
 _atom_site_fract_x
 _atom_site_fract_y
 _atom_site_fract_z
 _atom_site_occupancy
  Mo  Mo0  1  0.16666667  0.33333333  0.22060177  1
  Ti  Ti1  1  0.33279515  0.16720485  0.97283492  1
  Ti  Ti2  1  0.16666667  0.33333333  0.72075838  1
  Ti  Ti3  1  0.33247035  0.16752965  0.46803953  1
  Ti  Ti4  1  0.16157494  0.83078747  0.22042995  1
  Ti  Ti5  1  0.33279515  0.66559030  0.97283492  1
  Ti  Ti6  1  0.16775715  0.83387857  0.72052300  1
  Ti  Ti7  1  0.33247035  0.66494072  0.46803953  1
  Ti  Ti8  1  0.66921253  0.33842506  0.22042995  1
  Ti  Ti9  1  0.83440970  0.16720485  0.97283492  1
  Ti  Ti10  1  0.66612143  0.33224285  0.72052300  1
  Ti  Ti11  1  0.83505928  0.16752965  0.46803953  1
  Ti  Ti12  1  0.66921253  0.83078747  0.22042995  1
  Ti  Ti13  1  0.83333333  0.66666667  0.96549196  1
  Ti  Ti14  1  0.66612143  0.83387857  0.72052300  1
  Ti  Ti15  1  0.83333333  0.66666667  0.47555886  1
  N  N16  1  0.16666667  0.33333333  0.47535118  1
  N  N17  1  0.34064018  0.15935982  0.22043987  1
  N  N18  1  0.16666667  0.33333333  0.96592095  1
  N  N19  1  0.33400795  0.16599205  0.72051799  1
  N  N20  1  0.16584913  0.83292456  0.47021538  1
  N  N21  1  0.34064018  0.68128037  0.22043987  1
  N  N22  1  0.16571507  0.83285752  0.97080666  1
  N  N23  1  0.33400795  0.66801591  0.72051799  1
  N  N24  1  0.66707544  0.33415087  0.47021538  1
  N  N25  1  0.81871963  0.15935982  0.22043987  1
  N  N26  1  0.66714248  0.33428493  0.97080666  1
  N  N27  1  0.83198409  0.16599205  0.72051799  1
  N  N28  1  0.66707544  0.83292456  0.47021538  1
  N  N29  1  0.83333333  0.66666667  0.22048898  1
  N  N30  1  0.66714248  0.83285752  0.97080666  1
  N  N31  1  0.83333333  0.66666667  0.72040605  1
