# generated using pymatgen
data_HfTi15N16
_symmetry_space_group_name_H-M   'P 1'
_cell_length_a   7.07696948
_cell_length_b   7.07696948
_cell_length_c   8.51034260
_cell_angle_alpha   90.00000000
_cell_angle_beta   90.00000000
_cell_angle_gamma   120.00000001
_symmetry_Int_Tables_number   1
_chemical_formula_structural   HfTi15N16
_chemical_formula_sum   'Hf1 Ti15 N16'
_cell_volume   369.12403172
_cell_formula_units_Z   1
loop_
 _symmetry_equiv_pos_site_id
 _symmetry_equiv_pos_as_xyz
  1  'x, y, z'
loop_
 _atom_site_type_symbol
 _atom_site_label
 _atom_site_symmetry_multiplicity
 _atom_site_fract_x
 _atom_site_fract_y
 _atom_site_fract_z
 _atom_site_occupancy
  Hf  Hf0  1  0.16666667  0.33333333  0.22052893  1
  Ti  Ti1  1  0.33493257  0.16506743  0.96622458  1
  Ti  Ti2  1  0.16666667  0.33333333  0.72064906  1
  Ti  Ti3  1  0.33490993  0.16509007  0.47481600  1
  Ti  Ti4  1  0.16528716  0.83264358  0.22045337  1
  Ti  Ti5  1  0.33493257  0.66986515  0.96622458  1
  Ti  Ti6  1  0.16560544  0.83280272  0.72058667  1
  Ti  Ti7  1  0.33490993  0.66981988  0.47481600  1
  Ti  Ti8  1  0.66735642  0.33471284  0.22045337  1
  Ti  Ti9  1  0.83013485  0.16506743  0.96622458  1
  Ti  Ti10  1  0.66719728  0.33439456  0.72058667  1
  Ti  Ti11  1  0.83018012  0.16509007  0.47481600  1
  Ti  Ti12  1  0.66735642  0.83264358  0.22045337  1
  Ti  Ti13  1  0.83333333  0.66666667  0.97190726  1
  Ti  Ti14  1  0.66719728  0.83280272  0.72058667  1
  Ti  Ti15  1  0.83333333  0.66666667  0.46893948  1
  N  N16  1  0.16666667  0.33333333  0.47485279  1
  N  N17  1  0.33886793  0.16113207  0.22049741  1
  N  N18  1  0.16666667  0.33333333  0.96627291  1
  N  N19  1  0.33358447  0.16641553  0.72049803  1
  N  N20  1  0.16694259  0.83347130  0.47136111  1
  N  N21  1  0.33886793  0.67773586  0.22049741  1
  N  N22  1  0.16695053  0.83347526  0.96955955  1
  N  N23  1  0.33358447  0.66716894  0.72049803  1
  N  N24  1  0.66652870  0.33305741  0.47136111  1
  N  N25  1  0.82226414  0.16113207  0.22049741  1
  N  N26  1  0.66652474  0.33304947  0.96955955  1
  N  N27  1  0.83283106  0.16641553  0.72049803  1
  N  N28  1  0.66652870  0.83347130  0.47136111  1
  N  N29  1  0.83333333  0.66666667  0.22042976  1
  N  N30  1  0.66652474  0.83347526  0.96955955  1
  N  N31  1  0.83333333  0.66666667  0.72042968  1
