# generated using pymatgen
data_TaTi15N16
_symmetry_space_group_name_H-M   'P 1'
_cell_length_a   7.06152011
_cell_length_b   7.06152011
_cell_length_c   8.48633650
_cell_angle_alpha   90.00000000
_cell_angle_beta   90.00000000
_cell_angle_gamma   120.00000005
_symmetry_Int_Tables_number   1
_chemical_formula_structural   TaTi15N16
_chemical_formula_sum   'Ta1 Ti15 N16'
_cell_volume   366.47746972
_cell_formula_units_Z   1
loop_
 _symmetry_equiv_pos_site_id
 _symmetry_equiv_pos_as_xyz
  1  'x, y, z'
loop_
 _atom_site_type_symbol
 _atom_site_label
 _atom_site_symmetry_multiplicity
 _atom_site_fract_x
 _atom_site_fract_y
 _atom_site_fract_z
 _atom_site_occupancy
  Ta  Ta0  1  0.16666667  0.33333333  0.22045903  1
  Ti  Ti1  1  0.33433629  0.16566371  0.96857190  1
  Ti  Ti2  1  0.16666667  0.33333333  0.72069399  1
  Ti  Ti3  1  0.33423157  0.16576843  0.47239521  1
  Ti  Ti4  1  0.16464920  0.83232460  0.22040014  1
  Ti  Ti5  1  0.33433629  0.66867260  0.96857190  1
  Ti  Ti6  1  0.16622740  0.83311370  0.72050577  1
  Ti  Ti7  1  0.33423157  0.66846316  0.47239521  1
  Ti  Ti8  1  0.66767540  0.33535080  0.22040014  1
  Ti  Ti9  1  0.83132740  0.16566371  0.96857190  1
  Ti  Ti10  1  0.66688630  0.33377260  0.72050577  1
  Ti  Ti11  1  0.83153684  0.16576843  0.47239521  1
  Ti  Ti12  1  0.66767540  0.83232460  0.22040014  1
  Ti  Ti13  1  0.83333333  0.66666667  0.96985902  1
  Ti  Ti14  1  0.66688630  0.83311370  0.72050577  1
  Ti  Ti15  1  0.83333333  0.66666667  0.47135977  1
  N  N16  1  0.16666667  0.33333333  0.47369078  1
  N  N17  1  0.33538299  0.16461701  0.22048013  1
  N  N18  1  0.16666667  0.33333333  0.96738942  1
  N  N19  1  0.33396350  0.16603650  0.72051360  1
  N  N20  1  0.16600848  0.83300423  0.47084734  1
  N  N21  1  0.33538299  0.67076601  0.22048013  1
  N  N22  1  0.16592437  0.83296217  0.97012875  1
  N  N23  1  0.33396350  0.66792702  0.72051360  1
  N  N24  1  0.66699577  0.33399152  0.47084734  1
  N  N25  1  0.82923399  0.16461701  0.22048013  1
  N  N26  1  0.66703783  0.33407563  0.97012875  1
  N  N27  1  0.83207298  0.16603650  0.72051360  1
  N  N28  1  0.66699577  0.83300423  0.47084734  1
  N  N29  1  0.83333333  0.66666667  0.22050059  1
  N  N30  1  0.66703783  0.83296217  0.97012875  1
  N  N31  1  0.83333333  0.66666667  0.72051894  1
