# generated using pymatgen
data_Ti15WN16
_symmetry_space_group_name_H-M   'P 1'
_cell_length_a   7.05605241
_cell_length_b   7.05605241
_cell_length_c   8.45521206
_cell_angle_alpha   90.00000000
_cell_angle_beta   90.00000000
_cell_angle_gamma   120.00000002
_symmetry_Int_Tables_number   1
_chemical_formula_structural   Ti15WN16
_chemical_formula_sum   'Ti15 W1 N16'
_cell_volume   364.56815642
_cell_formula_units_Z   1
loop_
 _symmetry_equiv_pos_site_id
 _symmetry_equiv_pos_as_xyz
  1  'x, y, z'
loop_
 _atom_site_type_symbol
 _atom_site_label
 _atom_site_symmetry_multiplicity
 _atom_site_fract_x
 _atom_site_fract_y
 _atom_site_fract_z
 _atom_site_occupancy
  W  W0  1  0.16666667  0.33333333  0.22058139  1
  Ti  Ti1  1  0.33322984  0.16677016  0.97116501  1
  Ti  Ti2  1  0.16666667  0.33333333  0.72068154  1
  Ti  Ti3  1  0.33319877  0.16680123  0.47002315  1
  Ti  Ti4  1  0.16255691  0.83127845  0.22036135  1
  Ti  Ti5  1  0.33322984  0.66645971  0.97116501  1
  Ti  Ti6  1  0.16677148  0.83338574  0.72061963  1
  Ti  Ti7  1  0.33319877  0.66639754  0.47002315  1
  Ti  Ti8  1  0.66872155  0.33744309  0.22036135  1
  Ti  Ti9  1  0.83354029  0.16677016  0.97116501  1
  Ti  Ti10  1  0.66661426  0.33322852  0.72061963  1
  Ti  Ti11  1  0.83360246  0.16680123  0.47002315  1
  Ti  Ti12  1  0.66872155  0.83127845  0.22036135  1
  Ti  Ti13  1  0.83333333  0.66666667  0.96684886  1
  Ti  Ti14  1  0.66661426  0.83338574  0.72061963  1
  Ti  Ti15  1  0.83333333  0.66666667  0.47356872  1
  N  N16  1  0.16666667  0.33333333  0.47393144  1
  N  N17  1  0.33669466  0.16330534  0.22051350  1
  N  N18  1  0.16666667  0.33333333  0.96711783  1
  N  N19  1  0.33414732  0.16585268  0.72055399  1
  N  N20  1  0.16608356  0.83304178  0.47033240  1
  N  N21  1  0.33669466  0.67338934  0.22051350  1
  N  N22  1  0.16610227  0.83305114  0.97062195  1
  N  N23  1  0.33414732  0.66829466  0.72055399  1
  N  N24  1  0.66695822  0.33391644  0.47033240  1
  N  N25  1  0.82661066  0.16330534  0.22051350  1
  N  N26  1  0.66694886  0.33389773  0.97062195  1
  N  N27  1  0.83170534  0.16585268  0.72055399  1
  N  N28  1  0.66695822  0.83304178  0.47033240  1
  N  N29  1  0.83333333  0.66666667  0.22037212  1
  N  N30  1  0.66694886  0.83305114  0.97062195  1
  N  N31  1  0.83333333  0.66666667  0.72032514  1
