# generated using pymatgen
data_Ti15ReN16
_symmetry_space_group_name_H-M   'P 1'
_cell_length_a   7.05724890
_cell_length_b   7.05724889
_cell_length_c   8.43646280
_cell_angle_alpha   90.00000000
_cell_angle_beta   90.00000000
_cell_angle_gamma   120.00000003
_symmetry_Int_Tables_number   1
_chemical_formula_structural   Ti15ReN16
_chemical_formula_sum   'Ti15 Re1 N16'
_cell_volume   363.88310878
_cell_formula_units_Z   1
loop_
 _symmetry_equiv_pos_site_id
 _symmetry_equiv_pos_as_xyz
  1  'x, y, z'
loop_
 _atom_site_type_symbol
 _atom_site_label
 _atom_site_symmetry_multiplicity
 _atom_site_fract_x
 _atom_site_fract_y
 _atom_site_fract_z
 _atom_site_occupancy
  Re  Re0  1  0.16666667  0.33333333  0.22067527  1
  Ti  Ti1  1  0.33246464  0.16753536  0.97363860  1
  Ti  Ti2  1  0.16666667  0.33333333  0.72065481  1
  Ti  Ti3  1  0.33245995  0.16754005  0.46716830  1
  Ti  Ti4  1  0.15958897  0.82979448  0.22039806  1
  Ti  Ti5  1  0.33246464  0.66492929  0.97363860  1
  Ti  Ti6  1  0.16724943  0.83362471  0.72060679  1
  Ti  Ti7  1  0.33245995  0.66491989  0.46716830  1
  Ti  Ti8  1  0.67020552  0.34041103  0.22039806  1
  Ti  Ti9  1  0.83507071  0.16753536  0.97363860  1
  Ti  Ti10  1  0.66637529  0.33275057  0.72060679  1
  Ti  Ti11  1  0.83508011  0.16754005  0.46716830  1
  Ti  Ti12  1  0.67020552  0.82979448  0.22039806  1
  Ti  Ti13  1  0.83333333  0.66666667  0.96514752  1
  Ti  Ti14  1  0.66637529  0.83362471  0.72060679  1
  Ti  Ti15  1  0.83333333  0.66666667  0.47585119  1
  N  N16  1  0.16666667  0.33333333  0.47360223  1
  N  N17  1  0.34288278  0.15711722  0.22044476  1
  N  N18  1  0.16666667  0.33333333  0.96767184  1
  N  N19  1  0.33420842  0.16579158  0.72054859  1
  N  N20  1  0.16641629  0.83320814  0.47019310  1
  N  N21  1  0.34288278  0.68576556  0.22044476  1
  N  N22  1  0.16640975  0.83320487  0.97084675  1
  N  N23  1  0.33420842  0.66841685  0.72054859  1
  N  N24  1  0.66679186  0.33358371  0.47019310  1
  N  N25  1  0.81423444  0.15711722  0.22044476  1
  N  N26  1  0.66679513  0.33359025  0.97084675  1
  N  N27  1  0.83158315  0.16579158  0.72054859  1
  N  N28  1  0.66679186  0.83320814  0.47019310  1
  N  N29  1  0.83333333  0.66666667  0.22045962  1
  N  N30  1  0.66679513  0.83320487  0.97084675  1
  N  N31  1  0.83333333  0.66666667  0.72040271  1
