# generated using pymatgen
data_Ti15OsN16
_symmetry_space_group_name_H-M   'P 1'
_cell_length_a   7.06499110
_cell_length_b   7.06499110
_cell_length_c   8.42936917
_cell_angle_alpha   90.00000000
_cell_angle_beta   90.00000000
_cell_angle_gamma   120.00000000
_symmetry_Int_Tables_number   1
_chemical_formula_structural   Ti15OsN16
_chemical_formula_sum   'Ti15 Os1 N16'
_cell_volume   364.37531231
_cell_formula_units_Z   1
loop_
 _symmetry_equiv_pos_site_id
 _symmetry_equiv_pos_as_xyz
  1  'x, y, z'
loop_
 _atom_site_type_symbol
 _atom_site_label
 _atom_site_symmetry_multiplicity
 _atom_site_fract_x
 _atom_site_fract_y
 _atom_site_fract_z
 _atom_site_occupancy
  Os  Os0  1  0.16666667  0.33333333  0.22074602  1
  Ti  Ti1  1  0.33305658  0.16694342  0.97306056  1
  Ti  Ti2  1  0.16666667  0.33333333  0.72071541  1
  Ti  Ti3  1  0.33299934  0.16700066  0.46766898  1
  Ti  Ti4  1  0.15980685  0.82990342  0.22042222  1
  Ti  Ti5  1  0.33305658  0.66611317  0.97306056  1
  Ti  Ti6  1  0.16707720  0.83353860  0.72062923  1
  Ti  Ti7  1  0.33299934  0.66599868  0.46766898  1
  Ti  Ti8  1  0.67009658  0.34019315  0.22042222  1
  Ti  Ti9  1  0.83388683  0.16694342  0.97306056  1
  Ti  Ti10  1  0.66646140  0.33292280  0.72062923  1
  Ti  Ti11  1  0.83400132  0.16700066  0.46766898  1
  Ti  Ti12  1  0.67009658  0.82990342  0.22042222  1
  Ti  Ti13  1  0.83333333  0.66666667  0.96697374  1
  Ti  Ti14  1  0.66646140  0.83353860  0.72062923  1
  Ti  Ti15  1  0.83333333  0.66666667  0.47379003  1
  N  N16  1  0.16666667  0.33333333  0.47207933  1
  N  N17  1  0.34566150  0.15433850  0.22046558  1
  N  N18  1  0.16666667  0.33333333  0.96920543  1
  N  N19  1  0.33372317  0.16627683  0.72054652  1
  N  N20  1  0.16666112  0.83333056  0.47028875  1
  N  N21  1  0.34566150  0.69132301  0.22046558  1
  N  N22  1  0.16665816  0.83332907  0.97076887  1
  N  N23  1  0.33372317  0.66744635  0.72054652  1
  N  N24  1  0.66666944  0.33333888  0.47028875  1
  N  N25  1  0.80867699  0.15433850  0.22046558  1
  N  N26  1  0.66667093  0.33334184  0.97076887  1
  N  N27  1  0.83255365  0.16627683  0.72054652  1
  N  N28  1  0.66666944  0.83333056  0.47028875  1
  N  N29  1  0.83333333  0.66666667  0.22048316  1
  N  N30  1  0.66667093  0.83332907  0.97076887  1
  N  N31  1  0.83333333  0.66666667  0.72045479  1
