# generated using pymatgen
data_Ti3AlN4
_symmetry_space_group_name_H-M   'P 1'
_cell_length_a   8.13964633
_cell_length_b   8.13123978
_cell_length_c   6.01625081
_cell_angle_alpha   89.97142903
_cell_angle_beta   90.12574843
_cell_angle_gamma   117.31179422
_symmetry_Int_Tables_number   1
_chemical_formula_structural   Ti3AlN4
_chemical_formula_sum   'Ti12 Al4 N16'
_cell_volume   353.79826340
_cell_formula_units_Z   4
loop_
 _symmetry_equiv_pos_site_id
 _symmetry_equiv_pos_as_xyz
  1  'x, y, z'
loop_
 _atom_site_type_symbol
 _atom_site_label
 _atom_site_symmetry_multiplicity
 _atom_site_fract_x
 _atom_site_fract_y
 _atom_site_fract_z
 _atom_site_occupancy
  Ti  Ti0  1  0.97084054  0.47165886  0.32936843  1
  Ti  Ti1  1  0.21542006  0.21352092  0.33289935  1
  Ti  Ti2  1  0.09006738  0.34195410  0.83096412  1
  Ti  Ti3  1  0.47147466  0.96833024  0.33640139  1
  Ti  Ti4  1  0.34261242  0.08960464  0.83118308  1
  Ti  Ti5  1  0.84782049  0.60146686  0.83543955  1
  Ti  Ti6  1  0.84976440  0.10252895  0.16832742  1
  Ti  Ti7  1  0.72261910  0.22470234  0.66545203  1
  Ti  Ti8  1  0.09896653  0.84588415  0.16960281  1
  Ti  Ti9  1  0.97583061  0.97624803  0.66610271  1
  Ti  Ti10  1  0.21634761  0.71507489  0.66368529  1
  Ti  Ti11  1  0.46184623  0.46222272  0.66785651  1
  N  N12  1  0.23002449  0.71254744  0.32197420  1
  N  N13  1  0.47421419  0.47497168  0.32365455  1
  N  N14  1  0.35221548  0.59769439  0.84375635  1
  N  N15  1  0.71326220  0.22769910  0.32323680  1
  N  N16  1  0.59390948  0.34790750  0.84447997  1
  N  N17  1  0.96268723  0.96393986  0.33196430  1
  N  N18  1  0.83587781  0.09050531  0.83918155  1
  N  N19  1  0.09679982  0.84274400  0.83807195  1
  N  N20  1  0.83221434  0.59750336  0.17423091  1
  N  N21  1  0.10403657  0.35117448  0.16551288  1
  N  N22  1  0.96719553  0.47320592  0.66341722  1
  N  N23  1  0.35383403  0.10015095  0.16742084  1
  N  N24  1  0.21788124  0.21837648  0.66706164  1
  N  N25  1  0.59573001  0.83688617  0.16185954  1
  N  N26  1  0.47718644  0.96177351  0.67295515  1
  N  N27  1  0.71273610  0.72343556  0.65992942  1
  Al  Al28  1  0.71635825  0.72125971  0.33492142  1
  Al  Al29  1  0.59678286  0.84185107  0.83692935  1
  Al  Al30  1  0.59334342  0.35088785  0.16793586  1
  Al  Al31  1  0.35010047  0.59228899  0.16422343  1
