# generated using pymatgen
data_Ti3SiN4
_symmetry_space_group_name_H-M   'P 1'
_cell_length_a   8.13950484
_cell_length_b   8.10201178
_cell_length_c   5.87011132
_cell_angle_alpha   90.02565597
_cell_angle_beta   89.84187914
_cell_angle_gamma   115.61087892
_symmetry_Int_Tables_number   1
_chemical_formula_structural   Ti3SiN4
_chemical_formula_sum   'Ti12 Si4 N16'
_cell_volume   349.07742825
_cell_formula_units_Z   4
loop_
 _symmetry_equiv_pos_site_id
 _symmetry_equiv_pos_as_xyz
  1  'x, y, z'
loop_
 _atom_site_type_symbol
 _atom_site_label
 _atom_site_symmetry_multiplicity
 _atom_site_fract_x
 _atom_site_fract_y
 _atom_site_fract_z
 _atom_site_occupancy
  Ti  Ti0  1  0.96753965  0.47625557  0.32451082  1
  Ti  Ti1  1  0.21333183  0.19344128  0.33640377  1
  Ti  Ti2  1  0.07994696  0.33612205  0.82690042  1
  Ti  Ti3  1  0.47436560  0.96881844  0.34008213  1
  Ti  Ti4  1  0.34375467  0.07982963  0.83326538  1
  Ti  Ti5  1  0.85351293  0.60755631  0.82668677  1
  Ti  Ti6  1  0.84738592  0.12436719  0.17881028  1
  Ti  Ti7  1  0.71924576  0.23333372  0.66245264  1
  Ti  Ti8  1  0.10075247  0.82711088  0.17945684  1
  Ti  Ti9  1  0.98727545  0.97922503  0.66978379  1
  Ti  Ti10  1  0.21693763  0.70825799  0.66492716  1
  Ti  Ti11  1  0.45381978  0.45287043  0.66676955  1
  N  N12  1  0.25299784  0.69578699  0.31135844  1
  N  N13  1  0.45292543  0.45433883  0.29981491  1
  N  N14  1  0.34628943  0.58266898  0.86317598  1
  N  N15  1  0.69344098  0.24990076  0.30719607  1
  N  N16  1  0.58972558  0.35485036  0.87034743  1
  N  N17  1  0.95940952  0.96311476  0.32691379  1
  N  N18  1  0.83232345  0.08677523  0.83950526  1
  N  N19  1  0.10024682  0.83856579  0.84250855  1
  N  N20  1  0.80885021  0.61223955  0.19234460  1
  N  N21  1  0.10686977  0.34549347  0.17170905  1
  N  N22  1  0.96578081  0.47245506  0.66096104  1
  N  N23  1  0.33897517  0.07502510  0.16841144  1
  N  N24  1  0.22071358  0.21577554  0.67547724  1
  N  N25  1  0.61785437  0.84370864  0.14267727  1
  N  N26  1  0.48808226  0.94822294  0.69508300  1
  N  N27  1  0.70011973  0.73478713  0.63498115  1
  Si  Si28  1  0.74457334  0.76997218  0.32877014  1
  Si  Si29  1  0.62927896  0.86753873  0.83250384  1
  Si  Si30  1  0.61346427  0.39135645  0.16720319  1
  Si  Si31  1  0.32020985  0.55023501  0.15900808  1
