# generated using pymatgen
data_TiN
_symmetry_space_group_name_H-M   'P 1'
_cell_length_a   8.22407259
_cell_length_b   8.22410342
_cell_length_c   6.10280909
_cell_angle_alpha   89.99184378
_cell_angle_beta   90.00794974
_cell_angle_gamma   118.16329665
_symmetry_Int_Tables_number   1
_chemical_formula_structural   TiN
_chemical_formula_sum   'Ti16 N16'
_cell_volume   363.89811523
_cell_formula_units_Z   16
loop_
 _symmetry_equiv_pos_site_id
 _symmetry_equiv_pos_as_xyz
  1  'x, y, z'
loop_
 _atom_site_type_symbol
 _atom_site_label
 _atom_site_symmetry_multiplicity
 _atom_site_fract_x
 _atom_site_fract_y
 _atom_site_fract_z
 _atom_site_occupancy
  Ti  Ti0  1  0.97021184  0.46987631  0.33268471  1
  Ti  Ti1  1  0.22011193  0.21996020  0.33318189  1
  Ti  Ti2  1  0.09474617  0.34503576  0.83258297  1
  Ti  Ti3  1  0.47017064  0.96994755  0.33285961  1
  Ti  Ti4  1  0.34479455  0.09491950  0.83300027  1
  Ti  Ti5  1  0.84485586  0.59477199  0.83303871  1
  Ti  Ti6  1  0.84508291  0.09473532  0.16706542  1
  Ti  Ti7  1  0.71991357  0.22012428  0.66681674  1
  Ti  Ti8  1  0.09483469  0.84482728  0.16741982  1
  Ti  Ti9  1  0.96993326  0.97011168  0.66724016  1
  Ti  Ti10  1  0.21989381  0.72019047  0.66681317  1
  Ti  Ti11  1  0.46997254  0.47015514  0.66714282  1
  Ti  Ti12  1  0.72011344  0.71995175  0.33320582  1
  Ti  Ti13  1  0.59471151  0.84500309  0.83273996  1
  Ti  Ti14  1  0.59491859  0.34482414  0.16736853  1
  Ti  Ti15  1  0.34505723  0.59473654  0.16697374  1
  N  N16  1  0.22022443  0.71985610  0.33264265  1
  N  N17  1  0.47014102  0.46996633  0.33336385  1
  N  N18  1  0.34484047  0.59527961  0.83284786  1
  N  N19  1  0.72022778  0.21985186  0.33266011  1
  N  N20  1  0.59504206  0.34505944  0.83324040  1
  N  N21  1  0.97013351  0.96994525  0.33348511  1
  N  N22  1  0.84486305  0.09523391  0.83299049  1
  N  N23  1  0.09500447  0.84507301  0.83335688  1
  N  N24  1  0.84508144  0.59503286  0.16710319  1
  N  N25  1  0.09529579  0.34484399  0.16658938  1
  N  N26  1  0.96983426  0.47022461  0.66647464  1
  N  N27  1  0.34507432  0.09505837  0.16705233  1
  N  N28  1  0.21991855  0.22016536  0.66727277  1
  N  N29  1  0.59524563  0.84487098  0.16677380  1
  N  N30  1  0.46982011  0.97023695  0.66662882  1
  N  N31  1  0.71993054  0.72013039  0.66738339  1
