# generated using pymatgen
data_Ti3VN4
_symmetry_space_group_name_H-M   'P 1'
_cell_length_a   8.14895261
_cell_length_b   8.15157774
_cell_length_c   6.04780060
_cell_angle_alpha   90.00166615
_cell_angle_beta   90.03601094
_cell_angle_gamma   118.17791038
_symmetry_Int_Tables_number   1
_chemical_formula_structural   Ti3VN4
_chemical_formula_sum   'Ti12 V4 N16'
_cell_volume   354.12454004
_cell_formula_units_Z   4
loop_
 _symmetry_equiv_pos_site_id
 _symmetry_equiv_pos_as_xyz
  1  'x, y, z'
loop_
 _atom_site_type_symbol
 _atom_site_label
 _atom_site_symmetry_multiplicity
 _atom_site_fract_x
 _atom_site_fract_y
 _atom_site_fract_z
 _atom_site_occupancy
  Ti  Ti0  1  0.96964569  0.46991629  0.33334936  1
  Ti  Ti1  1  0.22380063  0.22434046  0.33183885  1
  Ti  Ti2  1  0.09682536  0.34644093  0.83438895  1
  Ti  Ti3  1  0.47097053  0.96788847  0.33171797  1
  Ti  Ti4  1  0.34695743  0.09696432  0.83657599  1
  Ti  Ti5  1  0.84101049  0.59453631  0.83625500  1
  Ti  Ti6  1  0.84165260  0.09159684  0.16461437  1
  Ti  Ti7  1  0.71777535  0.21787790  0.66859934  1
  Ti  Ti8  1  0.09288592  0.84284989  0.16896331  1
  Ti  Ti9  1  0.96540095  0.96674001  0.66415357  1
  Ti  Ti10  1  0.22355871  0.72156581  0.66944383  1
  Ti  Ti11  1  0.47295341  0.47401514  0.66508700  1
  N  N12  1  0.22261516  0.71801831  0.33366679  1
  N  N13  1  0.47178437  0.47222489  0.32872037  1
  N  N14  1  0.34683746  0.59650649  0.83593158  1
  N  N15  1  0.71817893  0.22061120  0.33321638  1
  N  N16  1  0.59528034  0.34536163  0.83777389  1
  N  N17  1  0.96777947  0.96854957  0.33215257  1
  N  N18  1  0.84384192  0.09314264  0.83141756  1
  N  N19  1  0.09367812  0.84520230  0.83402677  1
  N  N20  1  0.84299951  0.59496372  0.17099518  1
  N  N21  1  0.09571161  0.34678869  0.16561530  1
  N  N22  1  0.96928803  0.47090978  0.66800765  1
  N  N23  1  0.34636747  0.09554325  0.16855849  1
  N  N24  1  0.22169336  0.22039232  0.66615427  1
  N  N25  1  0.59477541  0.84254503  0.16256994  1
  N  N26  1  0.47081767  0.96918713  0.66937395  1
  N  N27  1  0.71818775  0.71966641  0.66236987  1
  V  V28  1  0.71382671  0.71645110  0.32826017  1
  V  V29  1  0.59428460  0.84155189  0.83317230  1
  V  V30  1  0.59667793  0.34980317  0.16915724  1
  V  V31  1  0.35193709  0.59784812  0.16387217  1
