# generated using pymatgen
data_Ti3CrN4
_symmetry_space_group_name_H-M   'P 1'
_cell_length_a   8.09551136
_cell_length_b   8.10796429
_cell_length_c   6.04374376
_cell_angle_alpha   90.06679722
_cell_angle_beta   90.18259455
_cell_angle_gamma   118.14912949
_symmetry_Int_Tables_number   1
_chemical_formula_structural   Ti3CrN4
_chemical_formula_sum   'Ti12 Cr4 N16'
_cell_volume   349.77596570
_cell_formula_units_Z   4
loop_
 _symmetry_equiv_pos_site_id
 _symmetry_equiv_pos_as_xyz
  1  'x, y, z'
loop_
 _atom_site_type_symbol
 _atom_site_label
 _atom_site_symmetry_multiplicity
 _atom_site_fract_x
 _atom_site_fract_y
 _atom_site_fract_z
 _atom_site_occupancy
  Ti  Ti0  1  0.96975090  0.46872885  0.33560210  1
  Ti  Ti1  1  0.22820465  0.22892553  0.32978505  1
  Ti  Ti2  1  0.10010104  0.34894661  0.83840140  1
  Ti  Ti3  1  0.46999898  0.96490151  0.33142466  1
  Ti  Ti4  1  0.34886430  0.10026220  0.83987629  1
  Ti  Ti5  1  0.83870345  0.59367230  0.84064895  1
  Ti  Ti6  1  0.83888006  0.08749879  0.16012256  1
  Ti  Ti7  1  0.71676637  0.21602208  0.66978459  1
  Ti  Ti8  1  0.09070108  0.84197246  0.17139065  1
  Ti  Ti9  1  0.96243383  0.96485027  0.66006645  1
  Ti  Ti10  1  0.22575777  0.72300589  0.67477030  1
  Ti  Ti11  1  0.47620665  0.47956294  0.66207234  1
  N  N12  1  0.22080798  0.71783844  0.33888197  1
  N  N13  1  0.47587936  0.47526608  0.32547872  1
  N  N14  1  0.35146412  0.59869253  0.83990808  1
  N  N15  1  0.71944356  0.21713015  0.33522243  1
  N  N16  1  0.59407672  0.34757279  0.83612008  1
  N  N17  1  0.96766524  0.96959479  0.32977155  1
  N  N18  1  0.84710315  0.09394189  0.82934966  1
  N  N19  1  0.09250032  0.84669118  0.83584688  1
  N  N20  1  0.84017979  0.59176000  0.17390596  1
  N  N21  1  0.09437372  0.34515250  0.16589375  1
  N  N22  1  0.96913918  0.47106130  0.67193176  1
  N  N23  1  0.34614093  0.09458809  0.17014043  1
  N  N24  1  0.22267722  0.22236628  0.66324272  1
  N  N25  1  0.58917797  0.83783111  0.15544443  1
  N  N26  1  0.47022500  0.97053490  0.66991363  1
  N  N27  1  0.72032672  0.72030560  0.65669560  1
  Cr  Cr28  1  0.71052398  0.71712854  0.32104515  1
  Cr  Cr29  1  0.59912041  0.84446278  0.82947766  1
  Cr  Cr30  1  0.59582168  0.34471278  0.16879698  1
  Cr  Cr31  1  0.34698388  0.59501882  0.16898725  1
