# generated using pymatgen
data_Ti3MnN4
_symmetry_space_group_name_H-M   'P 1'
_cell_length_a   8.09067713
_cell_length_b   8.09866242
_cell_length_c   5.99940141
_cell_angle_alpha   89.95296966
_cell_angle_beta   90.18623821
_cell_angle_gamma   118.29038346
_symmetry_Int_Tables_number   1
_chemical_formula_structural   Ti3MnN4
_chemical_formula_sum   'Ti12 Mn4 N16'
_cell_volume   346.14740367
_cell_formula_units_Z   4
loop_
 _symmetry_equiv_pos_site_id
 _symmetry_equiv_pos_as_xyz
  1  'x, y, z'
loop_
 _atom_site_type_symbol
 _atom_site_label
 _atom_site_symmetry_multiplicity
 _atom_site_fract_x
 _atom_site_fract_y
 _atom_site_fract_z
 _atom_site_occupancy
  Ti  Ti0  1  0.96746492  0.46610204  0.33865733  1
  Ti  Ti1  1  0.23629031  0.23789506  0.32027418  1
  Ti  Ti2  1  0.10690676  0.35479489  0.83890618  1
  Ti  Ti3  1  0.47066336  0.96105500  0.33393287  1
  Ti  Ti4  1  0.34999658  0.10530484  0.84059062  1
  Ti  Ti5  1  0.83430324  0.59255269  0.84873051  1
  Ti  Ti6  1  0.83426050  0.08022227  0.15722674  1
  Ti  Ti7  1  0.71494712  0.21437654  0.67637478  1
  Ti  Ti8  1  0.08829034  0.83937008  0.17560414  1
  Ti  Ti9  1  0.96319038  0.96458865  0.65522427  1
  Ti  Ti10  1  0.22807901  0.72430897  0.68371320  1
  Ti  Ti11  1  0.48000744  0.48657639  0.64401125  1
  N  N12  1  0.21560482  0.71801807  0.34935106  1
  N  N13  1  0.48088321  0.48393316  0.30389982  1
  N  N14  1  0.35810010  0.59832633  0.84567290  1
  N  N15  1  0.72157217  0.20937321  0.34379806  1
  N  N16  1  0.59058746  0.35128287  0.83557510  1
  N  N17  1  0.97393226  0.97644663  0.32525205  1
  N  N18  1  0.84987375  0.09254514  0.82511346  1
  N  N19  1  0.09089744  0.84806435  0.83990878  1
  N  N20  1  0.83370466  0.58847596  0.18494433  1
  N  N21  1  0.08700067  0.33987436  0.16526682  1
  N  N22  1  0.96784980  0.47142746  0.68109565  1
  N  N23  1  0.34761034  0.09152264  0.17095245  1
  N  N24  1  0.22583786  0.22663750  0.65537423  1
  N  N25  1  0.58046677  0.83351748  0.15081622  1
  N  N26  1  0.46829292  0.97255858  0.67760658  1
  N  N27  1  0.72671983  0.71966351  0.65046374  1
  Mn  Mn28  1  0.72104540  0.73309116  0.32122255  1
  Mn  Mn29  1  0.60151254  0.84022423  0.81496759  1
  Mn  Mn30  1  0.60173790  0.33030670  0.17095761  1
  Mn  Mn31  1  0.32237013  0.58756324  0.17451490  1
