# generated using pymatgen
data_Ti3FeN4
_symmetry_space_group_name_H-M   'P 1'
_cell_length_a   8.12665593
_cell_length_b   8.08233793
_cell_length_c   6.04479731
_cell_angle_alpha   90.25611188
_cell_angle_beta   89.98934803
_cell_angle_gamma   118.45058624
_symmetry_Int_Tables_number   1
_chemical_formula_structural   Ti3FeN4
_chemical_formula_sum   'Ti12 Fe4 N16'
_cell_volume   349.08153763
_cell_formula_units_Z   4
loop_
 _symmetry_equiv_pos_site_id
 _symmetry_equiv_pos_as_xyz
  1  'x, y, z'
loop_
 _atom_site_type_symbol
 _atom_site_label
 _atom_site_symmetry_multiplicity
 _atom_site_fract_x
 _atom_site_fract_y
 _atom_site_fract_z
 _atom_site_occupancy
  Ti  Ti0  1  0.96514870  0.46483790  0.33722396  1
  Ti  Ti1  1  0.24146450  0.24410790  0.32193294  1
  Ti  Ti2  1  0.10700761  0.35509098  0.84123903  1
  Ti  Ti3  1  0.46799939  0.95821158  0.32943094  1
  Ti  Ti4  1  0.35047015  0.10615134  0.84042123  1
  Ti  Ti5  1  0.83666470  0.58858401  0.84488793  1
  Ti  Ti6  1  0.82993787  0.07240042  0.15874062  1
  Ti  Ti7  1  0.71323991  0.21110681  0.67241666  1
  Ti  Ti8  1  0.08596923  0.83833335  0.17421181  1
  Ti  Ti9  1  0.96277472  0.96460128  0.65783519  1
  Ti  Ti10  1  0.22769206  0.72559682  0.67927769  1
  Ti  Ti11  1  0.48124853  0.49001768  0.65084741  1
  N  N12  1  0.21039660  0.72001790  0.34696657  1
  N  N13  1  0.48293855  0.48497265  0.31393720  1
  N  N14  1  0.35419876  0.59941247  0.84054272  1
  N  N15  1  0.72289221  0.20514968  0.34087935  1
  N  N16  1  0.59124290  0.35042509  0.82889101  1
  N  N17  1  0.97288994  0.97439436  0.33084025  1
  N  N18  1  0.84599265  0.09092630  0.82767600  1
  N  N19  1  0.09078845  0.84764272  0.83926277  1
  N  N20  1  0.83673719  0.58771869  0.17610850  1
  N  N21  1  0.08982530  0.34283855  0.16658689  1
  N  N22  1  0.96931192  0.46819061  0.67843363  1
  N  N23  1  0.34936637  0.09495470  0.17071154  1
  N  N24  1  0.22531147  0.22821587  0.65687133  1
  N  N25  1  0.58317600  0.82725489  0.15290973  1
  N  N26  1  0.46487660  0.97464781  0.66714951  1
  N  N27  1  0.72685674  0.72058983  0.66570216  1
  Fe  Fe28  1  0.72263860  0.72968622  0.33766891  1
  Fe  Fe29  1  0.59458509  0.84528988  0.81218764  1
  Fe  Fe30  1  0.60734299  0.33368366  0.16400253  1
  Fe  Fe31  1  0.32901428  0.59494804  0.17420637  1
