# generated using pymatgen
data_Ti3CoN4
_symmetry_space_group_name_H-M   'P 1'
_cell_length_a   8.11873063
_cell_length_b   8.08399080
_cell_length_c   6.08943154
_cell_angle_alpha   89.83654708
_cell_angle_beta   90.17051768
_cell_angle_gamma   118.87452873
_symmetry_Int_Tables_number   1
_chemical_formula_structural   Ti3CoN4
_chemical_formula_sum   'Ti12 Co4 N16'
_cell_volume   349.97198588
_cell_formula_units_Z   4
loop_
 _symmetry_equiv_pos_site_id
 _symmetry_equiv_pos_as_xyz
  1  'x, y, z'
loop_
 _atom_site_type_symbol
 _atom_site_label
 _atom_site_symmetry_multiplicity
 _atom_site_fract_x
 _atom_site_fract_y
 _atom_site_fract_z
 _atom_site_occupancy
  Ti  Ti0  1  0.96698607  0.46335627  0.33182192  1
  Ti  Ti1  1  0.24392332  0.24125128  0.32653493  1
  Ti  Ti2  1  0.10741139  0.35692818  0.84286181  1
  Ti  Ti3  1  0.46682887  0.96412163  0.31957424  1
  Ti  Ti4  1  0.35108751  0.10478551  0.83049708  1
  Ti  Ti5  1  0.83809293  0.58755463  0.82958074  1
  Ti  Ti6  1  0.82922753  0.06668025  0.16581635  1
  Ti  Ti7  1  0.71454196  0.20896189  0.66920538  1
  Ti  Ti8  1  0.08356261  0.83890797  0.16510620  1
  Ti  Ti9  1  0.95799493  0.96361935  0.66127553  1
  Ti  Ti10  1  0.22627979  0.72698552  0.66518272  1
  Ti  Ti11  1  0.48047607  0.49801854  0.65571462  1
  N  N12  1  0.20779135  0.72518134  0.33439436  1
  N  N13  1  0.49124609  0.47541027  0.32910708  1
  N  N14  1  0.34351235  0.60368698  0.83726104  1
  N  N15  1  0.72652715  0.20593879  0.33582466  1
  N  N16  1  0.59108172  0.35083882  0.80810989  1
  N  N17  1  0.97485072  0.96755502  0.33662944  1
  N  N18  1  0.83785874  0.08977837  0.83983316  1
  N  N19  1  0.09085116  0.84728848  0.82829702  1
  N  N20  1  0.84390248  0.58294061  0.15334003  1
  N  N21  1  0.10058688  0.34695664  0.17245827  1
  N  N22  1  0.97097636  0.46635238  0.66890958  1
  N  N23  1  0.34722958  0.09869994  0.15711512  1
  N  N24  1  0.21922144  0.23206375  0.66183909  1
  N  N25  1  0.58554938  0.82735504  0.17738176  1
  N  N26  1  0.46354504  0.97502797  0.64977288  1
  N  N27  1  0.72054540  0.72844999  0.67358461  1
  Co  Co28  1  0.74009132  0.70928098  0.34768796  1
  Co  Co29  1  0.57250375  0.85954769  0.86149694  1
  Co  Co30  1  0.60265373  0.33479246  0.13946251  1
  Co  Co31  1  0.34306238  0.59168352  0.22432311  1
