# generated using pymatgen
data_Ti3NiN4
_symmetry_space_group_name_H-M   'P 1'
_cell_length_a   8.23922486
_cell_length_b   8.14603435
_cell_length_c   6.16905663
_cell_angle_alpha   90.16999640
_cell_angle_beta   89.77977430
_cell_angle_gamma   119.07464709
_symmetry_Int_Tables_number   1
_chemical_formula_structural   Ti3NiN4
_chemical_formula_sum   'Ti12 Ni4 N16'
_cell_volume   361.87029819
_cell_formula_units_Z   4
loop_
 _symmetry_equiv_pos_site_id
 _symmetry_equiv_pos_as_xyz
  1  'x, y, z'
loop_
 _atom_site_type_symbol
 _atom_site_label
 _atom_site_symmetry_multiplicity
 _atom_site_fract_x
 _atom_site_fract_y
 _atom_site_fract_z
 _atom_site_occupancy
  Ti  Ti0  1  0.97364075  0.46593686  0.32246891  1
  Ti  Ti1  1  0.23765777  0.24127342  0.32441293  1
  Ti  Ti2  1  0.10847317  0.35604629  0.83469592  1
  Ti  Ti3  1  0.46265344  0.97244873  0.31406248  1
  Ti  Ti4  1  0.35534033  0.10753430  0.82924950  1
  Ti  Ti5  1  0.84374428  0.58078149  0.83043441  1
  Ti  Ti6  1  0.81960357  0.06101526  0.15090793  1
  Ti  Ti7  1  0.71615394  0.20748322  0.65517717  1
  Ti  Ti8  1  0.08304748  0.84344423  0.16264316  1
  Ti  Ti9  1  0.95910226  0.95995376  0.65726611  1
  Ti  Ti10  1  0.22036656  0.72502609  0.65289440  1
  Ti  Ti11  1  0.48715098  0.49493272  0.65534024  1
  N  N12  1  0.20614946  0.73179932  0.32827069  1
  N  N13  1  0.47861075  0.48157527  0.34656864  1
  N  N14  1  0.33812626  0.59987342  0.79742826  1
  N  N15  1  0.73177057  0.20469487  0.32571687  1
  N  N16  1  0.59781713  0.34345177  0.79629572  1
  N  N17  1  0.96952610  0.97046449  0.33350607  1
  N  N18  1  0.85486950  0.10018370  0.82536126  1
  N  N19  1  0.09440606  0.84790441  0.83007190  1
  N  N20  1  0.85654469  0.58166983  0.14388245  1
  N  N21  1  0.10441361  0.34779071  0.15793621  1
  N  N22  1  0.97212211  0.46425576  0.65548210  1
  N  N23  1  0.34177199  0.10535820  0.15513801  1
  N  N24  1  0.22411125  0.22750051  0.66514216  1
  N  N25  1  0.57461873  0.84318728  0.16849222  1
  N  N26  1  0.45885996  0.97951226  0.64268648  1
  N  N27  1  0.73557435  0.71733674  0.68471253  1
  Ni  Ni28  1  0.77236727  0.67890337  0.37694607  1
  Ni  Ni29  1  0.52779742  0.86518666  0.87453880  1
  Ni  Ni30  1  0.58734989  0.33106107  0.26519394  1
  Ni  Ni31  1  0.34625835  0.60241400  0.23707648  1
