# generated using pymatgen
data_YTi3N4
_symmetry_space_group_name_H-M   'P 1'
_cell_length_a   8.54838800
_cell_length_b   8.51801484
_cell_length_c   6.27042169
_cell_angle_alpha   89.85738701
_cell_angle_beta   89.92204613
_cell_angle_gamma   117.18921464
_symmetry_Int_Tables_number   1
_chemical_formula_structural   YTi3N4
_chemical_formula_sum   'Y4 Ti12 N16'
_cell_volume   406.12846908
_cell_formula_units_Z   4
loop_
 _symmetry_equiv_pos_site_id
 _symmetry_equiv_pos_as_xyz
  1  'x, y, z'
loop_
 _atom_site_type_symbol
 _atom_site_label
 _atom_site_symmetry_multiplicity
 _atom_site_fract_x
 _atom_site_fract_y
 _atom_site_fract_z
 _atom_site_occupancy
  Ti  Ti0  1  0.97159359  0.46711359  0.33078233  1
  Ti  Ti1  1  0.21180244  0.21025202  0.33584254  1
  Ti  Ti2  1  0.08827933  0.34092996  0.82745737  1
  Ti  Ti3  1  0.46148781  0.97183057  0.33803422  1
  Ti  Ti4  1  0.33077100  0.08228462  0.82653677  1
  Ti  Ti5  1  0.86451769  0.60636963  0.83370159  1
  Ti  Ti6  1  0.85562388  0.10554217  0.17580840  1
  Ti  Ti7  1  0.73476328  0.23716931  0.66044035  1
  Ti  Ti8  1  0.10180004  0.85158330  0.16638416  1
  Ti  Ti9  1  0.98399853  0.98183419  0.67604916  1
  Ti  Ti10  1  0.20635524  0.71204505  0.66019824  1
  Ti  Ti11  1  0.44975549  0.44550470  0.67046961  1
  N  N12  1  0.20988494  0.73215555  0.34443677  1
  N  N13  1  0.45814880  0.45304330  0.36237409  1
  N  N14  1  0.33055881  0.58561239  0.79647813  1
  N  N15  1  0.73357879  0.21674120  0.34535035  1
  N  N16  1  0.59619069  0.34114678  0.79288635  1
  N  N17  1  0.98168012  0.97886429  0.34202094  1
  N  N18  1  0.85416217  0.11033948  0.83523880  1
  N  N19  1  0.09835242  0.84369833  0.83389231  1
  N  N20  1  0.86713641  0.59288549  0.15527365  1
  N  N21  1  0.08729879  0.33272477  0.16439444  1
  N  N22  1  0.97001516  0.47334915  0.65857637  1
  N  N23  1  0.33293085  0.08482520  0.16322459  1
  N  N24  1  0.21546955  0.21559608  0.66940189  1
  N  N25  1  0.59429589  0.86698472  0.19226511  1
  N  N26  1  0.45378897  0.97920734  0.65036803  1
  N  N27  1  0.74047646  0.71743906  0.69440183  1
  Y  Y28  1  0.72911879  0.72155088  0.34374688  1
  Y  Y29  1  0.59562604  0.85332927  0.83124563  1
  Y  Y30  1  0.59411822  0.33716678  0.15415232  1
  Y  Y31  1  0.33641982  0.59088081  0.16856682  1
