# generated using pymatgen
data_ZrTi3N4
_symmetry_space_group_name_H-M   'P 1'
_cell_length_a   8.39435649
_cell_length_b   8.38948947
_cell_length_c   6.21538457
_cell_angle_alpha   89.99312380
_cell_angle_beta   90.03058493
_cell_angle_gamma   117.79746755
_symmetry_Int_Tables_number   1
_chemical_formula_structural   ZrTi3N4
_chemical_formula_sum   'Zr4 Ti12 N16'
_cell_volume   387.20289506
_cell_formula_units_Z   4
loop_
 _symmetry_equiv_pos_site_id
 _symmetry_equiv_pos_as_xyz
  1  'x, y, z'
loop_
 _atom_site_type_symbol
 _atom_site_label
 _atom_site_symmetry_multiplicity
 _atom_site_fract_x
 _atom_site_fract_y
 _atom_site_fract_z
 _atom_site_occupancy
  Ti  Ti0  1  0.96996207  0.46877105  0.33493877  1
  Ti  Ti1  1  0.21515837  0.21397870  0.33541419  1
  Ti  Ti2  1  0.09185829  0.34310072  0.83035105  1
  Ti  Ti3  1  0.46706505  0.97147861  0.33539188  1
  Ti  Ti4  1  0.34095629  0.09135867  0.82993190  1
  Ti  Ti5  1  0.85114002  0.59730797  0.83141891  1
  Ti  Ti6  1  0.85011783  0.10096349  0.16920152  1
  Ti  Ti7  1  0.72513538  0.22544371  0.66484200  1
  Ti  Ti8  1  0.09915307  0.84770650  0.16300323  1
  Ti  Ti9  1  0.97821583  0.97647897  0.67158788  1
  Ti  Ti10  1  0.21315107  0.71781274  0.66500429  1
  Ti  Ti11  1  0.46261572  0.46095115  0.67253739  1
  N  N12  1  0.21273456  0.72595082  0.34137405  1
  N  N13  1  0.46396240  0.46099747  0.35046117  1
  N  N14  1  0.33551441  0.59017751  0.81774303  1
  N  N15  1  0.72585636  0.21662009  0.34118503  1
  N  N16  1  0.59617359  0.34270091  0.81415662  1
  N  N17  1  0.97867541  0.97600052  0.33744013  1
  N  N18  1  0.85200784  0.10262137  0.83162434  1
  N  N19  1  0.09598488  0.84585107  0.82987092  1
  N  N20  1  0.85825246  0.59450380  0.15921264  1
  N  N21  1  0.08851058  0.33769895  0.16716449  1
  N  N22  1  0.97047076  0.46988561  0.66501031  1
  N  N23  1  0.33708481  0.08920303  0.16472923  1
  N  N24  1  0.21843923  0.21854615  0.66859672  1
  N  N25  1  0.59600495  0.85701042  0.17676271  1
  N  N26  1  0.46271237  0.97622740  0.65848619  1
  N  N27  1  0.72763181  0.71629959  0.67631269  1
  Zr  Zr28  1  0.72720819  0.72353792  0.33571119  1
  Zr  Zr29  1  0.59589128  0.84933677  0.83152318  1
  Zr  Zr30  1  0.59381403  0.34011497  0.16034635  1
  Zr  Zr31  1  0.33854111  0.59136331  0.16866598  1
