# generated using pymatgen
data_Ti3NbN4
_symmetry_space_group_name_H-M   'P 1'
_cell_length_a   8.30567077
_cell_length_b   8.30548681
_cell_length_c   6.16647854
_cell_angle_alpha   89.96571524
_cell_angle_beta   90.02168262
_cell_angle_gamma   118.00845088
_symmetry_Int_Tables_number   1
_chemical_formula_structural   Ti3NbN4
_chemical_formula_sum   'Ti12 Nb4 N16'
_cell_volume   375.55868544
_cell_formula_units_Z   4
loop_
 _symmetry_equiv_pos_site_id
 _symmetry_equiv_pos_as_xyz
  1  'x, y, z'
loop_
 _atom_site_type_symbol
 _atom_site_label
 _atom_site_symmetry_multiplicity
 _atom_site_fract_x
 _atom_site_fract_y
 _atom_site_fract_z
 _atom_site_occupancy
  Ti  Ti0  1  0.97067469  0.46988586  0.33518814  1
  Ti  Ti1  1  0.21809670  0.21845493  0.33331779  1
  Ti  Ti2  1  0.09417038  0.34342295  0.83250508  1
  Ti  Ti3  1  0.47022894  0.97109201  0.33545228  1
  Ti  Ti4  1  0.34334795  0.09443072  0.83517486  1
  Ti  Ti5  1  0.84603550  0.59567904  0.83395301  1
  Ti  Ti6  1  0.84642118  0.09694007  0.16548737  1
  Ti  Ti7  1  0.72075039  0.22010692  0.66778912  1
  Ti  Ti8  1  0.09585822  0.84546329  0.16550761  1
  Ti  Ti9  1  0.97133838  0.97102122  0.66772761  1
  Ti  Ti10  1  0.21891069  0.72046936  0.66739773  1
  Ti  Ti11  1  0.46790607  0.46713180  0.67131607  1
  N  N12  1  0.21753336  0.72267782  0.33940486  1
  N  N13  1  0.46407229  0.46371461  0.34497089  1
  N  N14  1  0.33785047  0.59076816  0.82170622  1
  N  N15  1  0.72224530  0.21905259  0.33978923  1
  N  N16  1  0.59661787  0.34296946  0.82600882  1
  N  N17  1  0.97433318  0.97358064  0.33597033  1
  N  N18  1  0.84971003  0.09907094  0.82994191  1
  N  N19  1  0.09499655  0.84520771  0.83156693  1
  N  N20  1  0.85561079  0.59581877  0.16376062  1
  N  N21  1  0.09007510  0.34218563  0.16664117  1
  N  N22  1  0.97000685  0.47016131  0.66624874  1
  N  N23  1  0.34065045  0.09060462  0.16745468  1
  N  N24  1  0.22018856  0.21811901  0.66734189  1
  N  N25  1  0.59620368  0.85635670  0.16919177  1
  N  N26  1  0.46552418  0.97445094  0.66487465  1
  N  N27  1  0.72424775  0.71547285  0.66878518  1
  Nb  Nb28  1  0.71936481  0.72047802  0.32881580  1
  Nb  Nb29  1  0.59573693  0.84395520  0.83019142  1
  Nb  Nb30  1  0.59459459  0.34663980  0.16416647  1
  Nb  Nb31  1  0.34669814  0.59461704  0.16235172  1
