# generated using pymatgen
data_Ti3MoN4
_symmetry_space_group_name_H-M   'P 1'
_cell_length_a   8.20504568
_cell_length_b   8.21612390
_cell_length_c   6.15610265
_cell_angle_alpha   90.22647318
_cell_angle_beta   90.00120248
_cell_angle_gamma   118.13809114
_symmetry_Int_Tables_number   1
_chemical_formula_structural   Ti3MoN4
_chemical_formula_sum   'Ti12 Mo4 N16'
_cell_volume   365.95375796
_cell_formula_units_Z   4
loop_
 _symmetry_equiv_pos_site_id
 _symmetry_equiv_pos_as_xyz
  1  'x, y, z'
loop_
 _atom_site_type_symbol
 _atom_site_label
 _atom_site_symmetry_multiplicity
 _atom_site_fract_x
 _atom_site_fract_y
 _atom_site_fract_z
 _atom_site_occupancy
  Ti  Ti0  1  0.97374040  0.46927644  0.34033075  1
  Ti  Ti1  1  0.21884334  0.22286285  0.33134219  1
  Ti  Ti2  1  0.09745981  0.34355551  0.83229309  1
  Ti  Ti3  1  0.46997336  0.97173349  0.34452684  1
  Ti  Ti4  1  0.34546011  0.09934457  0.84642580  1
  Ti  Ti5  1  0.84455928  0.59271780  0.84706778  1
  Ti  Ti6  1  0.84244246  0.09593992  0.15707177  1
  Ti  Ti7  1  0.72006648  0.21686509  0.67267034  1
  Ti  Ti8  1  0.09366495  0.84346929  0.17188634  1
  Ti  Ti9  1  0.96868368  0.96481092  0.66208255  1
  Ti  Ti10  1  0.22194210  0.72386624  0.67771759  1
  Ti  Ti11  1  0.47516652  0.46687737  0.67411736  1
  N  N12  1  0.22054599  0.72054831  0.34813721  1
  N  N13  1  0.46065510  0.47151060  0.34939487  1
  N  N14  1  0.34413586  0.59026363  0.81351742  1
  N  N15  1  0.72269161  0.21880281  0.34359291  1
  N  N16  1  0.59850323  0.34371305  0.83435368  1
  N  N17  1  0.96640832  0.97319433  0.33054806  1
  N  N18  1  0.85382047  0.09698298  0.82565149  1
  N  N19  1  0.09375706  0.84687548  0.84081514  1
  N  N20  1  0.85337369  0.59379639  0.17766482  1
  N  N21  1  0.09066220  0.34415683  0.16265891  1
  N  N22  1  0.96939259  0.47102097  0.66943141  1
  N  N23  1  0.34056196  0.08968711  0.17605951  1
  N  N24  1  0.22241771  0.21591066  0.66232546  1
  N  N25  1  0.58401481  0.86236132  0.14855665  1
  N  N26  1  0.46568166  0.97548368  0.67483658  1
  N  N27  1  0.73279547  0.70634835  0.64945899  1
  Mo  Mo28  1  0.70301511  0.72254690  0.30545953  1
  Mo  Mo29  1  0.60543847  0.83762268  0.81265015  1
  Mo  Mo30  1  0.59122434  0.35088778  0.17065567  1
  Mo  Mo31  1  0.34890186  0.59696662  0.14669913  1
