# generated using pymatgen
data_HfTi3N4
_symmetry_space_group_name_H-M   'P 1'
_cell_length_a   8.37460136
_cell_length_b   8.37205527
_cell_length_c   6.20895532
_cell_angle_alpha   90.00695663
_cell_angle_beta   90.02441968
_cell_angle_gamma   117.93296277
_symmetry_Int_Tables_number   1
_chemical_formula_structural   HfTi3N4
_chemical_formula_sum   'Hf4 Ti12 N16'
_cell_volume   384.60898143
_cell_formula_units_Z   4
loop_
 _symmetry_equiv_pos_site_id
 _symmetry_equiv_pos_as_xyz
  1  'x, y, z'
loop_
 _atom_site_type_symbol
 _atom_site_label
 _atom_site_symmetry_multiplicity
 _atom_site_fract_x
 _atom_site_fract_y
 _atom_site_fract_z
 _atom_site_occupancy
  Ti  Ti0  1  0.96936642  0.46906862  0.33562334  1
  Ti  Ti1  1  0.21448185  0.21286755  0.33603967  1
  Ti  Ti2  1  0.09112028  0.34292338  0.83030748  1
  Ti  Ti3  1  0.46747829  0.97069103  0.33545113  1
  Ti  Ti4  1  0.34156712  0.09119375  0.82963777  1
  Ti  Ti5  1  0.85074500  0.59735012  0.83098554  1
  Ti  Ti6  1  0.85073055  0.10188151  0.16901273  1
  Ti  Ti7  1  0.72442437  0.22561222  0.66407995  1
  Ti  Ti8  1  0.09985671  0.84783703  0.16288622  1
  Ti  Ti9  1  0.97883794  0.97692225  0.67186806  1
  Ti  Ti10  1  0.21337827  0.71781336  0.66454345  1
  Ti  Ti11  1  0.46260681  0.46102156  0.67215036  1
  N  N12  1  0.21475117  0.72347749  0.33736048  1
  N  N13  1  0.46762542  0.46460261  0.34485375  1
  N  N14  1  0.33859413  0.59284735  0.82461328  1
  N  N15  1  0.72371933  0.21794547  0.33697375  1
  N  N16  1  0.59557331  0.34299920  0.81910508  1
  N  N17  1  0.97632717  0.97372413  0.33644923  1
  N  N18  1  0.84914385  0.10068124  0.83313116  1
  N  N19  1  0.09623320  0.84566622  0.83077905  1
  N  N20  1  0.85252766  0.59427266  0.16195111  1
  N  N21  1  0.09113958  0.33994185  0.16817233  1
  N  N22  1  0.97031638  0.46991228  0.66500672  1
  N  N23  1  0.33994853  0.09143997  0.16524993  1
  N  N24  1  0.21819626  0.21912070  0.66835769  1
  N  N25  1  0.59500636  0.85103374  0.17354385  1
  N  N26  1  0.46519259  0.97408845  0.66010236  1
  N  N27  1  0.72557372  0.71857953  0.67417832  1
  Hf  Hf28  1  0.72791552  0.72463505  0.33684623  1
  Hf  Hf29  1  0.59633148  0.84971117  0.83129013  1
  Hf  Hf30  1  0.59335182  0.33991078  0.16065381  1
  Hf  Hf31  1  0.33793893  0.59022776  0.16879606  1
