# generated using pymatgen
data_TaTi3N4
_symmetry_space_group_name_H-M   'P 1'
_cell_length_a   8.29540754
_cell_length_b   8.29482438
_cell_length_c   6.16483943
_cell_angle_alpha   89.99961672
_cell_angle_beta   90.02695100
_cell_angle_gamma   118.08096092
_symmetry_Int_Tables_number   1
_chemical_formula_structural   TaTi3N4
_chemical_formula_sum   'Ta4 Ti12 N16'
_cell_volume   374.26111394
_cell_formula_units_Z   4
loop_
 _symmetry_equiv_pos_site_id
 _symmetry_equiv_pos_as_xyz
  1  'x, y, z'
loop_
 _atom_site_type_symbol
 _atom_site_label
 _atom_site_symmetry_multiplicity
 _atom_site_fract_x
 _atom_site_fract_y
 _atom_site_fract_z
 _atom_site_occupancy
  Ti  Ti0  1  0.97038999  0.46997415  0.33601188  1
  Ti  Ti1  1  0.21696278  0.21689260  0.33514496  1
  Ti  Ti2  1  0.09306268  0.34318778  0.83160328  1
  Ti  Ti3  1  0.47035822  0.97003964  0.33649393  1
  Ti  Ti4  1  0.34292084  0.09325311  0.83418034  1
  Ti  Ti5  1  0.84652209  0.59604711  0.83383190  1
  Ti  Ti6  1  0.84723322  0.09853031  0.16516245  1
  Ti  Ti7  1  0.72198772  0.22215465  0.66637771  1
  Ti  Ti8  1  0.09717609  0.84584316  0.16415268  1
  Ti  Ti9  1  0.97381109  0.97244024  0.66773799  1
  Ti  Ti10  1  0.21728906  0.71944905  0.66608801  1
  Ti  Ti11  1  0.46655692  0.46565123  0.67327968  1
  N  N12  1  0.21874177  0.72077589  0.33579918  1
  N  N13  1  0.46565793  0.46501503  0.34311632  1
  N  N14  1  0.33909595  0.59293609  0.82686756  1
  N  N15  1  0.72062089  0.22040501  0.33630234  1
  N  N16  1  0.59635594  0.34279351  0.82975199  1
  N  N17  1  0.97334624  0.97260354  0.33473920  1
  N  N18  1  0.84821129  0.09798776  0.82998491  1
  N  N19  1  0.09521956  0.84511658  0.83164686  1
  N  N20  1  0.85193146  0.59570746  0.16607504  1
  N  N21  1  0.09168887  0.34299805  0.16684238  1
  N  N22  1  0.96981923  0.47043752  0.66615510  1
  N  N23  1  0.34240081  0.09188814  0.16746006  1
  N  N24  1  0.21999496  0.21825699  0.66798612  1
  N  N25  1  0.59617162  0.85325547  0.16595405  1
  N  N26  1  0.46731822  0.97279008  0.66639474  1
  N  N27  1  0.72334619  0.71750274  0.66685980  1
  Ta  Ta28  1  0.72160287  0.72292754  0.33046068  1
  Ta  Ta29  1  0.59672942  0.84583921  0.82881254  1
  Ta  Ta30  1  0.59336927  0.34465246  0.16417718  1
  Ta  Ta31  1  0.34410679  0.59264792  0.16454913  1
