# generated using pymatgen
data_Ti3WN4
_symmetry_space_group_name_H-M   'P 1'
_cell_length_a   8.20602220
_cell_length_b   8.22340906
_cell_length_c   6.13930482
_cell_angle_alpha   90.29885261
_cell_angle_beta   89.99908176
_cell_angle_gamma   118.29862197
_symmetry_Int_Tables_number   1
_chemical_formula_structural   Ti3WN4
_chemical_formula_sum   'Ti12 W4 N16'
_cell_volume   364.77074012
_cell_formula_units_Z   4
loop_
 _symmetry_equiv_pos_site_id
 _symmetry_equiv_pos_as_xyz
  1  'x, y, z'
loop_
 _atom_site_type_symbol
 _atom_site_label
 _atom_site_symmetry_multiplicity
 _atom_site_fract_x
 _atom_site_fract_y
 _atom_site_fract_z
 _atom_site_occupancy
  Ti  Ti0  1  0.97507716  0.46948884  0.34189834  1
  Ti  Ti1  1  0.21821027  0.22249721  0.33013665  1
  Ti  Ti2  1  0.09796505  0.34249146  0.82546958  1
  Ti  Ti3  1  0.47006020  0.97016235  0.35337536  1
  Ti  Ti4  1  0.34384101  0.09723515  0.85007477  1
  Ti  Ti5  1  0.84539653  0.59406304  0.85489510  1
  Ti  Ti6  1  0.84204640  0.09732643  0.15304746  1
  Ti  Ti7  1  0.72070598  0.22027847  0.67185262  1
  Ti  Ti8  1  0.09576915  0.84324374  0.17508881  1
  Ti  Ti9  1  0.97195759  0.96451396  0.66118381  1
  Ti  Ti10  1  0.21765912  0.72246359  0.68103456  1
  Ti  Ti11  1  0.47716357  0.45951841  0.67645299  1
  N  N12  1  0.22573513  0.71509719  0.34883956  1
  N  N13  1  0.45586292  0.47715097  0.35084837  1
  N  N14  1  0.34529428  0.58901953  0.80223198  1
  N  N15  1  0.72161386  0.22088521  0.33959483  1
  N  N16  1  0.60104823  0.34155239  0.84730444  1
  N  N17  1  0.96377392  0.97390283  0.32789108  1
  N  N18  1  0.85233521  0.09471057  0.81993029  1
  N  N19  1  0.09317671  0.84770388  0.84511980  1
  N  N20  1  0.85015058  0.59556803  0.19171654  1
  N  N21  1  0.09236400  0.34717520  0.15822995  1
  N  N22  1  0.96757997  0.47312269  0.66855508  1
  N  N23  1  0.34259954  0.08905240  0.18047064  1
  N  N24  1  0.22340409  0.21344606  0.66114242  1
  N  N25  1  0.58010372  0.86875872  0.13781416  1
  N  N26  1  0.46746637  0.97329768  0.68494956  1
  N  N27  1  0.73601659  0.70215413  0.64140717  1
  W  W28  1  0.69964696  0.72868549  0.30021586  1
  W  W29  1  0.60788594  0.83314714  0.80369676  1
  W  W30  1  0.58784742  0.35161662  0.18083748  1
  W  W31  1  0.35024253  0.60067063  0.13469398  1
