# generated using pymatgen
data_Ti3ReN4
_symmetry_space_group_name_H-M   'P 1'
_cell_length_a   8.21474068
_cell_length_b   8.30783181
_cell_length_c   6.01442677
_cell_angle_alpha   89.88485196
_cell_angle_beta   90.25550065
_cell_angle_gamma   119.11857892
_symmetry_Int_Tables_number   1
_chemical_formula_structural   Ti3ReN4
_chemical_formula_sum   'Ti12 Re4 N16'
_cell_volume   358.58431780
_cell_formula_units_Z   4
loop_
 _symmetry_equiv_pos_site_id
 _symmetry_equiv_pos_as_xyz
  1  'x, y, z'
loop_
 _atom_site_type_symbol
 _atom_site_label
 _atom_site_symmetry_multiplicity
 _atom_site_fract_x
 _atom_site_fract_y
 _atom_site_fract_z
 _atom_site_occupancy
  Ti  Ti0  1  0.97368413  0.47112751  0.35161946  1
  Ti  Ti1  1  0.22214695  0.22708402  0.31412067  1
  Ti  Ti2  1  0.10808883  0.34677489  0.82738374  1
  Ti  Ti3  1  0.47208699  0.97306433  0.35742241  1
  Ti  Ti4  1  0.34830952  0.10472816  0.84288619  1
  Ti  Ti5  1  0.83673678  0.58987248  0.85808315  1
  Ti  Ti6  1  0.83611920  0.09572768  0.14800599  1
  Ti  Ti7  1  0.71844063  0.22361267  0.69297601  1
  Ti  Ti8  1  0.09574031  0.84423803  0.17348477  1
  Ti  Ti9  1  0.96621430  0.96162313  0.64800803  1
  Ti  Ti10  1  0.23089360  0.71764300  0.70622197  1
  Ti  Ti11  1  0.48218908  0.47860093  0.62202885  1
  N  N12  1  0.20965583  0.73588982  0.37560924  1
  N  N13  1  0.47472095  0.47034164  0.27405850  1
  N  N14  1  0.36291394  0.58271649  0.84363340  1
  N  N15  1  0.73530193  0.20662764  0.36496519  1
  N  N16  1  0.58556984  0.35352343  0.83585084  1
  N  N17  1  0.96770957  0.97621461  0.31298548  1
  N  N18  1  0.86021345  0.09593701  0.81359796  1
  N  N19  1  0.09052266  0.84850903  0.83950998  1
  N  N20  1  0.83713603  0.59437571  0.20078640  1
  N  N21  1  0.08418016  0.34047561  0.15943020  1
  N  N22  1  0.97088139  0.47257922  0.69510236  1
  N  N23  1  0.34129251  0.08304046  0.17340169  1
  N  N24  1  0.22525103  0.21913612  0.64321224  1
  N  N25  1  0.56057633  0.85880808  0.12708190  1
  N  N26  1  0.47070104  0.97470541  0.70462895  1
  N  N27  1  0.74180859  0.70176940  0.63180728  1
  Re  Re28  1  0.69421594  0.74006597  0.29875411  1
  Re  Re29  1  0.61369535  0.83252642  0.79234854  1
  Re  Re30  1  0.60605342  0.31743615  0.18039913  1
  Re  Re31  1  0.31694973  0.60122497  0.19059541  1
