# generated using pymatgen
data_Ti3OsN4
_symmetry_space_group_name_H-M   'P 1'
_cell_length_a   8.25338343
_cell_length_b   8.26834923
_cell_length_c   6.06831942
_cell_angle_alpha   91.27489120
_cell_angle_beta   88.32832577
_cell_angle_gamma   119.21619928
_symmetry_Int_Tables_number   1
_chemical_formula_structural   Ti3OsN4
_chemical_formula_sum   'Ti12 Os4 N16'
_cell_volume   361.26252833
_cell_formula_units_Z   4
loop_
 _symmetry_equiv_pos_site_id
 _symmetry_equiv_pos_as_xyz
  1  'x, y, z'
loop_
 _atom_site_type_symbol
 _atom_site_label
 _atom_site_symmetry_multiplicity
 _atom_site_fract_x
 _atom_site_fract_y
 _atom_site_fract_z
 _atom_site_occupancy
  Ti  Ti0  1  0.97150884  0.46490586  0.34698286  1
  Ti  Ti1  1  0.23434573  0.23874794  0.31760223  1
  Ti  Ti2  1  0.10545815  0.35108399  0.82680427  1
  Ti  Ti3  1  0.46980181  0.96103958  0.34480360  1
  Ti  Ti4  1  0.34327936  0.11080853  0.85184744  1
  Ti  Ti5  1  0.83956333  0.58116185  0.86900404  1
  Ti  Ti6  1  0.83031546  0.07719469  0.14852357  1
  Ti  Ti7  1  0.71134338  0.21696045  0.68605384  1
  Ti  Ti8  1  0.08787477  0.83796073  0.18056793  1
  Ti  Ti9  1  0.96782520  0.96296838  0.65373291  1
  Ti  Ti10  1  0.22627620  0.72705791  0.70300978  1
  Ti  Ti11  1  0.49252583  0.47827367  0.63501269  1
  N  N12  1  0.20349614  0.73114731  0.37900263  1
  N  N13  1  0.47750842  0.47955246  0.29943639  1
  N  N14  1  0.36161582  0.59215870  0.80472590  1
  N  N15  1  0.73588053  0.19568223  0.36268468  1
  N  N16  1  0.58472612  0.35220922  0.84436195  1
  N  N17  1  0.97904592  0.98911306  0.32833817  1
  N  N18  1  0.85027968  0.09240283  0.80808629  1
  N  N19  1  0.08909635  0.85068728  0.85128929  1
  N  N20  1  0.84095662  0.58826203  0.20415988  1
  N  N21  1  0.08601900  0.33886685  0.15505219  1
  N  N22  1  0.96800716  0.46748855  0.69055811  1
  N  N23  1  0.34334526  0.08553311  0.18148368  1
  N  N24  1  0.22845803  0.22123568  0.64801281  1
  N  N25  1  0.57306197  0.83817834  0.12883094  1
  N  N26  1  0.45687879  0.98571607  0.69142729  1
  N  N27  1  0.74840994  0.70100821  0.66054564  1
  Os  Os28  1  0.71659131  0.74906375  0.32709109  1
  Os  Os29  1  0.60410989  0.84278395  0.74301740  1
  Os  Os30  1  0.61214109  0.31835254  0.19166839  1
  Os  Os31  1  0.30025391  0.61239427  0.13628213  1
