# generated using pymatgen
data_Al15BN16
_symmetry_space_group_name_H-M   'P 1'
_cell_length_a   6.19719782
_cell_length_b   6.19719782
_cell_length_c   9.92704432
_cell_angle_alpha   90.00000000
_cell_angle_beta   90.00000000
_cell_angle_gamma   120.00000002
_symmetry_Int_Tables_number   1
_chemical_formula_structural   Al15BN16
_chemical_formula_sum   'Al15 B1 N16'
_cell_volume   330.17281390
_cell_formula_units_Z   1
loop_
 _symmetry_equiv_pos_site_id
 _symmetry_equiv_pos_as_xyz
  1  'x, y, z'
loop_
 _atom_site_type_symbol
 _atom_site_label
 _atom_site_symmetry_multiplicity
 _atom_site_fract_x
 _atom_site_fract_y
 _atom_site_fract_z
 _atom_site_occupancy
  B  B0  1  0.16666667  0.33333333  0.25633524  1
  Al  Al1  1  0.33000327  0.16999673  0.00505064  1
  Al  Al2  1  0.16666667  0.33333333  0.74917081  1
  Al  Al3  1  0.33190014  0.16809986  0.49363340  1
  Al  Al4  1  0.16210727  0.83105363  0.25077321  1
  Al  Al5  1  0.33000327  0.66000655  0.00505064  1
  Al  Al6  1  0.16904482  0.83452241  0.74988185  1
  Al  Al7  1  0.33190014  0.66380029  0.49363340  1
  Al  Al8  1  0.66894637  0.33789273  0.25077321  1
  Al  Al9  1  0.83999345  0.16999673  0.00505064  1
  Al  Al10  1  0.66547759  0.33095518  0.74988185  1
  Al  Al11  1  0.83619971  0.16809986  0.49363340  1
  Al  Al12  1  0.66894637  0.83105363  0.25077321  1
  Al  Al13  1  0.83333333  0.66666667  0.99932846  1
  Al  Al14  1  0.66547759  0.83452241  0.74988185  1
  Al  Al15  1  0.83333333  0.66666667  0.50202717  1
  N  N16  1  0.16666667  0.33333333  0.41933211  1
  N  N17  1  0.31768023  0.18231977  0.19890989  1
  N  N18  1  0.16666667  0.33333333  0.93840139  1
  N  N19  1  0.33233773  0.16766227  0.68678437  1
  N  N20  1  0.16481162  0.83240581  0.44068931  1
  N  N21  1  0.31768023  0.63536048  0.19890989  1
  N  N22  1  0.17018761  0.83509380  0.94373668  1
  N  N23  1  0.33233773  0.66467546  0.68678437  1
  N  N24  1  0.66759419  0.33518838  0.44068931  1
  N  N25  1  0.86463952  0.18231977  0.19890989  1
  N  N26  1  0.66490620  0.32981239  0.94373668  1
  N  N27  1  0.83532454  0.16766227  0.68678437  1
  N  N28  1  0.66759419  0.83240581  0.44068931  1
  N  N29  1  0.83333333  0.66666667  0.18938679  1
  N  N30  1  0.66490620  0.83509380  0.94373668  1
  N  N31  1  0.83333333  0.66666667  0.69363996  1
