# generated using pymatgen
data_Al15SiN16
_symmetry_space_group_name_H-M   'P 1'
_cell_length_a   6.25825424
_cell_length_b   6.25825424
_cell_length_c   10.03515009
_cell_angle_alpha   90.00000000
_cell_angle_beta   90.00000000
_cell_angle_gamma   120.00000002
_symmetry_Int_Tables_number   1
_chemical_formula_structural   Al15SiN16
_chemical_formula_sum   'Al15 Si1 N16'
_cell_volume   340.37755018
_cell_formula_units_Z   1
loop_
 _symmetry_equiv_pos_site_id
 _symmetry_equiv_pos_as_xyz
  1  'x, y, z'
loop_
 _atom_site_type_symbol
 _atom_site_label
 _atom_site_symmetry_multiplicity
 _atom_site_fract_x
 _atom_site_fract_y
 _atom_site_fract_z
 _atom_site_occupancy
  Si  Si0  1  0.16666667  0.33333333  0.25044417  1
  Al  Al1  1  0.33335024  0.16664976  0.99990132  1
  Al  Al2  1  0.16666667  0.33333333  0.75008171  1
  Al  Al3  1  0.33463814  0.16536186  0.49941487  1
  Al  Al4  1  0.17151294  0.83575647  0.25080985  1
  Al  Al5  1  0.33335024  0.66670049  0.99990132  1
  Al  Al6  1  0.16621868  0.83310934  0.75025639  1
  Al  Al7  1  0.33463814  0.66927630  0.49941487  1
  Al  Al8  1  0.66424353  0.32848706  0.25080985  1
  Al  Al9  1  0.83329951  0.16664976  0.99990132  1
  Al  Al10  1  0.66689066  0.33378132  0.75025639  1
  Al  Al11  1  0.83072370  0.16536186  0.49941487  1
  Al  Al12  1  0.66424353  0.83575647  0.25080985  1
  Al  Al13  1  0.83333333  0.66666667  0.00142370  1
  Al  Al14  1  0.66689066  0.83310934  0.75025639  1
  Al  Al15  1  0.83333333  0.66666667  0.50069582  1
  N  N16  1  0.16666667  0.33333333  0.43055968  1
  N  N17  1  0.32213649  0.17786351  0.19360477  1
  N  N18  1  0.16666667  0.33333333  0.93952525  1
  N  N19  1  0.33286067  0.16713933  0.68955295  1
  N  N20  1  0.16618972  0.83309485  0.44108687  1
  N  N21  1  0.32213649  0.64427298  0.19360477  1
  N  N22  1  0.16630131  0.83315065  0.94194459  1
  N  N23  1  0.33286067  0.66572136  0.68955295  1
  N  N24  1  0.66690515  0.33381028  0.44108687  1
  N  N25  1  0.85572702  0.17786351  0.19360477  1
  N  N26  1  0.66684935  0.33369869  0.94194459  1
  N  N27  1  0.83427864  0.16713933  0.68955295  1
  N  N28  1  0.66690515  0.83309485  0.44108687  1
  N  N29  1  0.83333333  0.66666667  0.19235908  1
  N  N30  1  0.66684935  0.83315065  0.94194459  1
  N  N31  1  0.83333333  0.66666667  0.69119578  1
