# generated using pymatgen
data_TiAl15N16
_symmetry_space_group_name_H-M   'P 1'
_cell_length_a   6.29431366
_cell_length_b   6.29431366
_cell_length_c   10.05681138
_cell_angle_alpha   90.00000000
_cell_angle_beta   90.00000000
_cell_angle_gamma   120.00000000
_symmetry_Int_Tables_number   1
_chemical_formula_structural   TiAl15N16
_chemical_formula_sum   'Ti1 Al15 N16'
_cell_volume   345.05450239
_cell_formula_units_Z   1
loop_
 _symmetry_equiv_pos_site_id
 _symmetry_equiv_pos_as_xyz
  1  'x, y, z'
loop_
 _atom_site_type_symbol
 _atom_site_label
 _atom_site_symmetry_multiplicity
 _atom_site_fract_x
 _atom_site_fract_y
 _atom_site_fract_z
 _atom_site_occupancy
  Ti  Ti0  1  0.16666667  0.33333333  0.24076238  1
  Al  Al1  1  0.33512942  0.16487058  0.99755698  1
  Al  Al2  1  0.16666667  0.33333333  0.75003346  1
  Al  Al3  1  0.33310223  0.16689777  0.50161037  1
  Al  Al4  1  0.16795465  0.83397733  0.25217345  1
  Al  Al5  1  0.33512942  0.67025885  0.99755698  1
  Al  Al6  1  0.16584698  0.83292348  0.74978767  1
  Al  Al7  1  0.33310223  0.66620447  0.50161037  1
  Al  Al8  1  0.66602267  0.33204535  0.25217345  1
  Al  Al9  1  0.82974115  0.16487058  0.99755698  1
  Al  Al10  1  0.66707652  0.33415302  0.74978767  1
  Al  Al11  1  0.83379553  0.16689777  0.50161037  1
  Al  Al12  1  0.66602267  0.83397733  0.25217345  1
  Al  Al13  1  0.83333333  0.66666667  0.00066378  1
  Al  Al14  1  0.66707652  0.83292348  0.74978767  1
  Al  Al15  1  0.83333333  0.66666667  0.50045215  1
  N  N16  1  0.16666667  0.33333333  0.44682306  1
  N  N17  1  0.34012519  0.15987481  0.18762204  1
  N  N18  1  0.16666667  0.33333333  0.94346502  1
  N  N19  1  0.33359520  0.16640480  0.69269255  1
  N  N20  1  0.16712882  0.83356441  0.44225656  1
  N  N21  1  0.34012519  0.68025039  0.18762204  1
  N  N22  1  0.16500884  0.83250442  0.93991240  1
  N  N23  1  0.33359520  0.66719041  0.69269255  1
  N  N24  1  0.66643559  0.33287118  0.44225656  1
  N  N25  1  0.81974961  0.15987481  0.18762204  1
  N  N26  1  0.66749558  0.33499116  0.93991240  1
  N  N27  1  0.83280959  0.16640480  0.69269255  1
  N  N28  1  0.66643559  0.83356441  0.44225656  1
  N  N29  1  0.83333333  0.66666667  0.19224711  1
  N  N30  1  0.66749558  0.83250442  0.93991240  1
  N  N31  1  0.83333333  0.66666667  0.69071703  1
