# generated using pymatgen
data_Al15CrN16
_symmetry_space_group_name_H-M   'P 1'
_cell_length_a   6.27987841
_cell_length_b   6.27987840
_cell_length_c   10.03549265
_cell_angle_alpha   90.00000000
_cell_angle_beta   90.00000000
_cell_angle_gamma   119.99999999
_symmetry_Int_Tables_number   1
_chemical_formula_structural   Al15CrN16
_chemical_formula_sum   'Al15 Cr1 N16'
_cell_volume   342.74552925
_cell_formula_units_Z   1
loop_
 _symmetry_equiv_pos_site_id
 _symmetry_equiv_pos_as_xyz
  1  'x, y, z'
loop_
 _atom_site_type_symbol
 _atom_site_label
 _atom_site_symmetry_multiplicity
 _atom_site_fract_x
 _atom_site_fract_y
 _atom_site_fract_z
 _atom_site_occupancy
  Cr  Cr0  1  0.16666667  0.33333333  0.24650137  1
  Al  Al1  1  0.33381195  0.16618805  0.99886068  1
  Al  Al2  1  0.16666667  0.33333333  0.74993255  1
  Al  Al3  1  0.33327757  0.16672243  0.50011164  1
  Al  Al4  1  0.16578409  0.83289205  0.25165090  1
  Al  Al5  1  0.33381195  0.66762390  0.99886068  1
  Al  Al6  1  0.16641809  0.83320904  0.74969082  1
  Al  Al7  1  0.33327757  0.66655515  0.50011164  1
  Al  Al8  1  0.66710795  0.33421591  0.25165090  1
  Al  Al9  1  0.83237610  0.16618805  0.99886068  1
  Al  Al10  1  0.66679096  0.33358191  0.74969082  1
  Al  Al11  1  0.83344485  0.16672243  0.50011164  1
  Al  Al12  1  0.66710795  0.83289205  0.25165090  1
  Al  Al13  1  0.83333333  0.66666667  0.00017894  1
  Al  Al14  1  0.66679096  0.83320904  0.74969082  1
  Al  Al15  1  0.83333333  0.66666667  0.50077252  1
  N  N16  1  0.16666667  0.33333333  0.44335583  1
  N  N17  1  0.33622357  0.16377643  0.18952589  1
  N  N18  1  0.16666667  0.33333333  0.94177411  1
  N  N19  1  0.33331540  0.16668460  0.69142452  1
  N  N20  1  0.16658768  0.83329383  0.44182196  1
  N  N21  1  0.33622357  0.67244715  0.18952589  1
  N  N22  1  0.16593395  0.83296697  0.94051553  1
  N  N23  1  0.33331540  0.66663082  0.69142452  1
  N  N24  1  0.66670617  0.33341232  0.44182196  1
  N  N25  1  0.82755285  0.16377643  0.18952589  1
  N  N26  1  0.66703303  0.33406605  0.94051553  1
  N  N27  1  0.83336918  0.16668460  0.69142452  1
  N  N28  1  0.66670617  0.83329383  0.44182196  1
  N  N29  1  0.83333333  0.66666667  0.19155225  1
  N  N30  1  0.66703303  0.83296697  0.94051553  1
  N  N31  1  0.83333333  0.66666667  0.69112662  1
