# generated using pymatgen
data_MnAl15N16
_symmetry_space_group_name_H-M   'P 1'
_cell_length_a   6.26779093
_cell_length_b   6.26779093
_cell_length_c   10.08025210
_cell_angle_alpha   90.00000000
_cell_angle_beta   90.00000000
_cell_angle_gamma   120.00000004
_symmetry_Int_Tables_number   1
_chemical_formula_structural   MnAl15N16
_chemical_formula_sum   'Mn1 Al15 N16'
_cell_volume   342.95017473
_cell_formula_units_Z   1
loop_
 _symmetry_equiv_pos_site_id
 _symmetry_equiv_pos_as_xyz
  1  'x, y, z'
loop_
 _atom_site_type_symbol
 _atom_site_label
 _atom_site_symmetry_multiplicity
 _atom_site_fract_x
 _atom_site_fract_y
 _atom_site_fract_z
 _atom_site_occupancy
  Mn  Mn0  1  0.16666667  0.33333333  0.24939918  1
  Al  Al1  1  0.33327676  0.16672324  0.99944551  1
  Al  Al2  1  0.16666667  0.33333333  0.74955217  1
  Al  Al3  1  0.33346206  0.16653794  0.49983942  1
  Al  Al4  1  0.16514026  0.83257012  0.25176476  1
  Al  Al5  1  0.33327676  0.66655353  0.99944551  1
  Al  Al6  1  0.16655511  0.83327755  0.74999427  1
  Al  Al7  1  0.33346206  0.66692414  0.49983942  1
  Al  Al8  1  0.66742988  0.33485974  0.25176476  1
  Al  Al9  1  0.83344647  0.16672324  0.99944551  1
  Al  Al10  1  0.66672245  0.33344489  0.74999427  1
  Al  Al11  1  0.83307586  0.16653794  0.49983942  1
  Al  Al12  1  0.66742988  0.83257012  0.25176476  1
  Al  Al13  1  0.83333333  0.66666667  0.00051259  1
  Al  Al14  1  0.66672245  0.83327755  0.74999427  1
  Al  Al15  1  0.83333333  0.66666667  0.50095406  1
  N  N16  1  0.16666667  0.33333333  0.44287063  1
  N  N17  1  0.33490102  0.16509898  0.18997527  1
  N  N18  1  0.16666667  0.33333333  0.94057832  1
  N  N19  1  0.33345574  0.16654426  0.69070470  1
  N  N20  1  0.16640930  0.83320465  0.44120862  1
  N  N21  1  0.33490102  0.66980205  0.18997527  1
  N  N22  1  0.16623468  0.83311733  0.94045771  1
  N  N23  1  0.33345574  0.66691147  0.69070470  1
  N  N24  1  0.66679535  0.33359070  0.44120862  1
  N  N25  1  0.83019795  0.16509898  0.18997527  1
  N  N26  1  0.66688267  0.33376532  0.94045771  1
  N  N27  1  0.83308853  0.16654426  0.69070470  1
  N  N28  1  0.66679535  0.83320465  0.44120862  1
  N  N29  1  0.83333333  0.66666667  0.19106726  1
  N  N30  1  0.66688267  0.83311733  0.94045771  1
  N  N31  1  0.83333333  0.66666667  0.69089500  1
