# generated using pymatgen
data_Al15CoN16
_symmetry_space_group_name_H-M   'P 1'
_cell_length_a   6.26402714
_cell_length_b   6.26402714
_cell_length_c   10.05600044
_cell_angle_alpha   90.00000000
_cell_angle_beta   90.00000000
_cell_angle_gamma   120.00000001
_symmetry_Int_Tables_number   1
_chemical_formula_structural   Al15CoN16
_chemical_formula_sum   'Al15 Co1 N16'
_cell_volume   341.71431816
_cell_formula_units_Z   1
loop_
 _symmetry_equiv_pos_site_id
 _symmetry_equiv_pos_as_xyz
  1  'x, y, z'
loop_
 _atom_site_type_symbol
 _atom_site_label
 _atom_site_symmetry_multiplicity
 _atom_site_fract_x
 _atom_site_fract_y
 _atom_site_fract_z
 _atom_site_occupancy
  Co  Co0  1  0.16666667  0.33333333  0.24729578  1
  Al  Al1  1  0.33381594  0.16618406  0.00015785  1
  Al  Al2  1  0.16666667  0.33333333  0.75006641  1
  Al  Al3  1  0.33361828  0.16638172  0.49897061  1
  Al  Al4  1  0.16412410  0.83206205  0.25237254  1
  Al  Al5  1  0.33381594  0.66763188  0.00015785  1
  Al  Al6  1  0.16656684  0.83328342  0.74958972  1
  Al  Al7  1  0.33361828  0.66723657  0.49897061  1
  Al  Al8  1  0.66793795  0.33587590  0.25237254  1
  Al  Al9  1  0.83236812  0.16618406  0.00015785  1
  Al  Al10  1  0.66671658  0.33343316  0.74958972  1
  Al  Al11  1  0.83276343  0.16638172  0.49897061  1
  Al  Al12  1  0.66793795  0.83206205  0.25237254  1
  Al  Al13  1  0.83333333  0.66666667  -0.00006655  1
  Al  Al14  1  0.66671658  0.83328342  0.74958972  1
  Al  Al15  1  0.83333333  0.66666667  0.50127844  1
  N  N16  1  0.16666667  0.33333333  0.44099809  1
  N  N17  1  0.33684015  0.16315985  0.19138217  1
  N  N18  1  0.16666667  0.33333333  0.94143657  1
  N  N19  1  0.33312825  0.16687175  0.69014102  1
  N  N20  1  0.16603339  0.83301669  0.44171851  1
  N  N21  1  0.33684015  0.67368030  0.19138217  1
  N  N22  1  0.16620953  0.83310476  0.94010784  1
  N  N23  1  0.33312825  0.66625652  0.69014102  1
  N  N24  1  0.66698331  0.33396661  0.44171851  1
  N  N25  1  0.82631970  0.16315985  0.19138217  1
  N  N26  1  0.66689524  0.33379047  0.94010784  1
  N  N27  1  0.83374348  0.16687175  0.69014102  1
  N  N28  1  0.66698331  0.83301669  0.44171851  1
  N  N29  1  0.83333333  0.66666667  0.19072791  1
  N  N30  1  0.66689524  0.83310476  0.94010784  1
  N  N31  1  0.83333333  0.66666667  0.69094262  1
