# generated using pymatgen
data_Al15NiN16
_symmetry_space_group_name_H-M   'P 1'
_cell_length_a   6.26293531
_cell_length_b   6.26293531
_cell_length_c   10.05693594
_cell_angle_alpha   90.00000000
_cell_angle_beta   90.00000000
_cell_angle_gamma   119.99999996
_symmetry_Int_Tables_number   1
_chemical_formula_structural   Al15NiN16
_chemical_formula_sum   'Al15 Ni1 N16'
_cell_volume   341.62698426
_cell_formula_units_Z   1
loop_
 _symmetry_equiv_pos_site_id
 _symmetry_equiv_pos_as_xyz
  1  'x, y, z'
loop_
 _atom_site_type_symbol
 _atom_site_label
 _atom_site_symmetry_multiplicity
 _atom_site_fract_x
 _atom_site_fract_y
 _atom_site_fract_z
 _atom_site_occupancy
  Ni  Ni0  1  0.16666667  0.33333333  0.24770175  1
  Al  Al1  1  0.33369124  0.16630876  0.99949937  1
  Al  Al2  1  0.16666667  0.33333333  0.74957481  1
  Al  Al3  1  0.33380780  0.16619220  0.49970022  1
  Al  Al4  1  0.16373409  0.83186704  0.25248167  1
  Al  Al5  1  0.33369124  0.66738248  0.99949937  1
  Al  Al6  1  0.16635750  0.83317875  0.74970037  1
  Al  Al7  1  0.33380780  0.66761561  0.49970022  1
  Al  Al8  1  0.66813296  0.33626591  0.25248167  1
  Al  Al9  1  0.83261752  0.16630876  0.99949937  1
  Al  Al10  1  0.66682125  0.33364250  0.74970037  1
  Al  Al11  1  0.83238439  0.16619220  0.49970022  1
  Al  Al12  1  0.66813296  0.83186704  0.25248167  1
  Al  Al13  1  0.83333333  0.66666667  -0.00022295  1
  Al  Al14  1  0.66682125  0.83317875  0.74970037  1
  Al  Al15  1  0.83333333  0.66666667  0.50123053  1
  N  N16  1  0.16666667  0.33333333  0.44497104  1
  N  N17  1  0.33879163  0.16120837  0.18998089  1
  N  N18  1  0.16666667  0.33333333  0.94067434  1
  N  N19  1  0.33335757  0.16664243  0.69055855  1
  N  N20  1  0.16619010  0.83309505  0.44181010  1
  N  N21  1  0.33879163  0.67758327  0.18998089  1
  N  N22  1  0.16605105  0.83302552  0.93981826  1
  N  N23  1  0.33335757  0.66671516  0.69055855  1
  N  N24  1  0.66690495  0.33380990  0.44181010  1
  N  N25  1  0.82241673  0.16120837  0.18998089  1
  N  N26  1  0.66697448  0.33394895  0.93981826  1
  N  N27  1  0.83328484  0.16664243  0.69055855  1
  N  N28  1  0.66690495  0.83309505  0.44181010  1
  N  N29  1  0.83333333  0.66666667  0.19069858  1
  N  N30  1  0.66697448  0.83302552  0.93981826  1
  N  N31  1  0.83333333  0.66666667  0.69072366  1
