# generated using pymatgen
data_YAl15N16
_symmetry_space_group_name_H-M   'P 1'
_cell_length_a   6.34194502
_cell_length_b   6.34194502
_cell_length_c   10.15315797
_cell_angle_alpha   90.00000000
_cell_angle_beta   90.00000000
_cell_angle_gamma   119.99999999
_symmetry_Int_Tables_number   1
_chemical_formula_structural   YAl15N16
_chemical_formula_sum   'Y1 Al15 N16'
_cell_volume   353.65249035
_cell_formula_units_Z   1
loop_
 _symmetry_equiv_pos_site_id
 _symmetry_equiv_pos_as_xyz
  1  'x, y, z'
loop_
 _atom_site_type_symbol
 _atom_site_label
 _atom_site_symmetry_multiplicity
 _atom_site_fract_x
 _atom_site_fract_y
 _atom_site_fract_z
 _atom_site_occupancy
  Y  Y0  1  0.16666667  0.33333333  0.25248871  1
  Al  Al1  1  0.33630140  0.16369860  0.99423145  1
  Al  Al2  1  0.16666667  0.33333333  0.74839308  1
  Al  Al3  1  0.33559553  0.16440447  0.50836300  1
  Al  Al4  1  0.17219202  0.83609600  0.24714670  1
  Al  Al5  1  0.33630140  0.67260282  0.99423145  1
  Al  Al6  1  0.16407608  0.83203803  0.75113059  1
  Al  Al7  1  0.33559553  0.67119107  0.50836300  1
  Al  Al8  1  0.66390400  0.32780798  0.24714670  1
  Al  Al9  1  0.82739718  0.16369860  0.99423145  1
  Al  Al10  1  0.66796197  0.33592392  0.75113059  1
  Al  Al11  1  0.82880893  0.16440447  0.50836300  1
  Al  Al12  1  0.66390400  0.83609600  0.24714670  1
  Al  Al13  1  0.83333333  0.66666667  0.99999913  1
  Al  Al14  1  0.66796197  0.83203803  0.75113059  1
  Al  Al15  1  0.83333333  0.66666667  0.49777855  1
  N  N16  1  0.16666667  0.33333333  0.47032636  1
  N  N17  1  0.34881338  0.15118662  0.17984348  1
  N  N18  1  0.16666667  0.33333333  0.94207554  1
  N  N19  1  0.33551456  0.16448544  0.69606792  1
  N  N20  1  0.16863626  0.83431813  0.44027430  1
  N  N21  1  0.34881338  0.69762677  0.17984348  1
  N  N22  1  0.16242008  0.83121003  0.93799531  1
  N  N23  1  0.33551456  0.67102913  0.69606792  1
  N  N24  1  0.66568187  0.33136374  0.44027430  1
  N  N25  1  0.80237323  0.15118662  0.17984348  1
  N  N26  1  0.66878997  0.33757992  0.93799531  1
  N  N27  1  0.82897087  0.16448544  0.69606792  1
  N  N28  1  0.66568187  0.83431813  0.44027430  1
  N  N29  1  0.83333333  0.66666667  0.19201114  1
  N  N30  1  0.66878997  0.83121003  0.93799531  1
  N  N31  1  0.83333333  0.66666667  0.68776924  1
