# generated using pymatgen
data_ZrAl15N16
_symmetry_space_group_name_H-M   'P 1'
_cell_length_a   6.33060456
_cell_length_b   6.33060456
_cell_length_c   10.09934039
_cell_angle_alpha   90.00000000
_cell_angle_beta   90.00000000
_cell_angle_gamma   120.00000000
_symmetry_Int_Tables_number   1
_chemical_formula_structural   ZrAl15N16
_chemical_formula_sum   'Zr1 Al15 N16'
_cell_volume   350.52097751
_cell_formula_units_Z   1
loop_
 _symmetry_equiv_pos_site_id
 _symmetry_equiv_pos_as_xyz
  1  'x, y, z'
loop_
 _atom_site_type_symbol
 _atom_site_label
 _atom_site_symmetry_multiplicity
 _atom_site_fract_x
 _atom_site_fract_y
 _atom_site_fract_z
 _atom_site_occupancy
  Zr  Zr0  1  0.16666667  0.33333333  0.23788761  1
  Al  Al1  1  0.33710595  0.16289405  0.99457688  1
  Al  Al2  1  0.16666667  0.33333333  0.75085584  1
  Al  Al3  1  0.33360149  0.16639851  0.50467899  1
  Al  Al4  1  0.16876043  0.83438021  0.25266643  1
  Al  Al5  1  0.33710595  0.67421191  0.99457688  1
  Al  Al6  1  0.16470630  0.83235315  0.74965130  1
  Al  Al7  1  0.33360149  0.66720299  0.50467899  1
  Al  Al8  1  0.66561979  0.33123957  0.25266643  1
  Al  Al9  1  0.82578809  0.16289405  0.99457688  1
  Al  Al10  1  0.66764685  0.33529370  0.74965130  1
  Al  Al11  1  0.83279701  0.16639851  0.50467899  1
  Al  Al12  1  0.66561979  0.83438021  0.25266643  1
  Al  Al13  1  0.83333333  0.66666667  0.00035621  1
  Al  Al14  1  0.66764685  0.83235315  0.74965130  1
  Al  Al15  1  0.83333333  0.66666667  0.50011642  1
  N  N16  1  0.16666667  0.33333333  0.45547323  1
  N  N17  1  0.34731164  0.15268836  0.18341005  1
  N  N18  1  0.16666667  0.33333333  0.94644029  1
  N  N19  1  0.33386213  0.16613787  0.69483781  1
  N  N20  1  0.16801761  0.83400881  0.44286668  1
  N  N21  1  0.34731164  0.69462330  0.18341005  1
  N  N22  1  0.16347108  0.83173554  0.93827348  1
  N  N23  1  0.33386213  0.66772428  0.69483781  1
  N  N24  1  0.66599119  0.33198239  0.44286668  1
  N  N25  1  0.80537670  0.15268836  0.18341005  1
  N  N26  1  0.66826446  0.33652892  0.93827348  1
  N  N27  1  0.83227572  0.16613787  0.69483781  1
  N  N28  1  0.66599119  0.83400881  0.44286668  1
  N  N29  1  0.83333333  0.66666667  0.19227905  1
  N  N30  1  0.66826446  0.83173554  0.93827348  1
  N  N31  1  0.83333333  0.66666667  0.68970652  1
