# generated using pymatgen
data_Al15MoN16
_symmetry_space_group_name_H-M   'P 1'
_cell_length_a   6.31345012
_cell_length_b   6.31345012
_cell_length_c   10.02219841
_cell_angle_alpha   90.00000000
_cell_angle_beta   90.00000000
_cell_angle_gamma   120.00000000
_symmetry_Int_Tables_number   1
_chemical_formula_structural   Al15MoN16
_chemical_formula_sum   'Al15 Mo1 N16'
_cell_volume   345.96099322
_cell_formula_units_Z   1
loop_
 _symmetry_equiv_pos_site_id
 _symmetry_equiv_pos_as_xyz
  1  'x, y, z'
loop_
 _atom_site_type_symbol
 _atom_site_label
 _atom_site_symmetry_multiplicity
 _atom_site_fract_x
 _atom_site_fract_y
 _atom_site_fract_z
 _atom_site_occupancy
  Mo  Mo0  1  0.16666667  0.33333333  0.21795944  1
  Al  Al1  1  0.33733263  0.16266737  0.99730544  1
  Al  Al2  1  0.16666667  0.33333333  0.75288547  1
  Al  Al3  1  0.33132491  0.16867509  0.50080896  1
  Al  Al4  1  0.16647290  0.83323645  0.25623272  1
  Al  Al5  1  0.33733263  0.67466525  0.99730544  1
  Al  Al6  1  0.16547191  0.83273595  0.74891214  1
  Al  Al7  1  0.33132491  0.66264983  0.50080896  1
  Al  Al8  1  0.66676355  0.33352710  0.25623272  1
  Al  Al9  1  0.82533475  0.16266737  0.99730544  1
  Al  Al10  1  0.66726405  0.33452809  0.74891214  1
  Al  Al11  1  0.83735017  0.16867509  0.50080896  1
  Al  Al12  1  0.66676355  0.83323645  0.25623272  1
  Al  Al13  1  0.83333333  0.66666667  0.00062524  1
  Al  Al14  1  0.66726405  0.83273595  0.74891214  1
  Al  Al15  1  0.83333333  0.66666667  0.50221649  1
  N  N16  1  0.16666667  0.33333333  0.44159279  1
  N  N17  1  0.34691677  0.15308323  0.18729837  1
  N  N18  1  0.16666667  0.33333333  0.94986067  1
  N  N19  1  0.33258214  0.16741786  0.69353430  1
  N  N20  1  0.16662480  0.83331239  0.44522867  1
  N  N21  1  0.34691677  0.69383354  0.18729837  1
  N  N22  1  0.16408789  0.83204394  0.93916006  1
  N  N23  1  0.33258214  0.66516429  0.69353430  1
  N  N24  1  0.66668761  0.33337520  0.44522867  1
  N  N25  1  0.80616646  0.15308323  0.18729837  1
  N  N26  1  0.66795606  0.33591211  0.93916006  1
  N  N27  1  0.83483571  0.16741786  0.69353430  1
  N  N28  1  0.66668761  0.83331239  0.44522867  1
  N  N29  1  0.83333333  0.66666667  0.19378588  1
  N  N30  1  0.66795606  0.83204394  0.93916006  1
  N  N31  1  0.83333333  0.66666667  0.69163204  1
