# generated using pymatgen
data_HfAl15N16
_symmetry_space_group_name_H-M   'P 1'
_cell_length_a   6.31810308
_cell_length_b   6.31810308
_cell_length_c   10.13036471
_cell_angle_alpha   90.00000000
_cell_angle_beta   90.00000000
_cell_angle_gamma   120.00000000
_symmetry_Int_Tables_number   1
_chemical_formula_structural   HfAl15N16
_chemical_formula_sum   'Hf1 Al15 N16'
_cell_volume   350.21047092
_cell_formula_units_Z   1
loop_
 _symmetry_equiv_pos_site_id
 _symmetry_equiv_pos_as_xyz
  1  'x, y, z'
loop_
 _atom_site_type_symbol
 _atom_site_label
 _atom_site_symmetry_multiplicity
 _atom_site_fract_x
 _atom_site_fract_y
 _atom_site_fract_z
 _atom_site_occupancy
  Hf  Hf0  1  0.16666667  0.33333333  0.24277152  1
  Al  Al1  1  0.33659344  0.16340656  0.99458174  1
  Al  Al2  1  0.16666667  0.33333333  0.75143006  1
  Al  Al3  1  0.33422047  0.16577953  0.50503181  1
  Al  Al4  1  0.16621938  0.83310968  0.25258540  1
  Al  Al5  1  0.33659344  0.67318689  0.99458174  1
  Al  Al6  1  0.16486320  0.83243159  0.74977832  1
  Al  Al7  1  0.33422047  0.66844095  0.50503181  1
  Al  Al8  1  0.66689032  0.33378062  0.25258540  1
  Al  Al9  1  0.82681311  0.16340656  0.99458174  1
  Al  Al10  1  0.66756841  0.33513680  0.74977832  1
  Al  Al11  1  0.83155905  0.16577953  0.50503181  1
  Al  Al12  1  0.66689032  0.83310968  0.25258540  1
  Al  Al13  1  0.83333333  0.66666667  0.99992362  1
  Al  Al14  1  0.66756841  0.83243159  0.74977832  1
  Al  Al15  1  0.83333333  0.66666667  0.50070113  1
  N  N16  1  0.16666667  0.33333333  0.45230600  1
  N  N17  1  0.34486183  0.15513817  0.18382204  1
  N  N18  1  0.16666667  0.33333333  0.94542047  1
  N  N19  1  0.33357493  0.16642507  0.69426824  1
  N  N20  1  0.16790349  0.83395175  0.44270350  1
  N  N21  1  0.34486183  0.68972367  0.18382204  1
  N  N22  1  0.16417398  0.83208698  0.93819711  1
  N  N23  1  0.33357493  0.66714988  0.69426824  1
  N  N24  1  0.66604825  0.33209651  0.44270350  1
  N  N25  1  0.81027633  0.15513817  0.18382204  1
  N  N26  1  0.66791302  0.33582602  0.93819711  1
  N  N27  1  0.83285012  0.16642507  0.69426824  1
  N  N28  1  0.66604825  0.83395175  0.44270350  1
  N  N29  1  0.83333333  0.66666667  0.19072973  1
  N  N30  1  0.66791302  0.83208698  0.93819711  1
  N  N31  1  0.83333333  0.66666667  0.68981304  1
