# generated using pymatgen
data_TaAl15N16
_symmetry_space_group_name_H-M   'P 1'
_cell_length_a   6.32642529
_cell_length_b   6.32642530
_cell_length_c   10.03737358
_cell_angle_alpha   90.00000000
_cell_angle_beta   90.00000000
_cell_angle_gamma   120.00000002
_symmetry_Int_Tables_number   1
_chemical_formula_structural   TaAl15N16
_chemical_formula_sum   'Ta1 Al15 N16'
_cell_volume   347.91046143
_cell_formula_units_Z   1
loop_
 _symmetry_equiv_pos_site_id
 _symmetry_equiv_pos_as_xyz
  1  'x, y, z'
loop_
 _atom_site_type_symbol
 _atom_site_label
 _atom_site_symmetry_multiplicity
 _atom_site_fract_x
 _atom_site_fract_y
 _atom_site_fract_z
 _atom_site_occupancy
  Ta  Ta0  1  0.16666667  0.33333333  0.22378262  1
  Al  Al1  1  0.33763531  0.16236469  0.99578620  1
  Al  Al2  1  0.16666667  0.33333333  0.75258059  1
  Al  Al3  1  0.33204394  0.16795606  0.50200379  1
  Al  Al4  1  0.16788612  0.83394305  0.25580570  1
  Al  Al5  1  0.33763531  0.67527064  0.99578620  1
  Al  Al6  1  0.16507471  0.83253735  0.74882243  1
  Al  Al7  1  0.33204394  0.66408790  0.50200379  1
  Al  Al8  1  0.66605695  0.33211388  0.25580570  1
  Al  Al9  1  0.82472936  0.16236469  0.99578620  1
  Al  Al10  1  0.66746265  0.33492529  0.74882243  1
  Al  Al11  1  0.83591210  0.16795606  0.50200379  1
  Al  Al12  1  0.66605695  0.83394305  0.25580570  1
  Al  Al13  1  0.83333333  0.66666667  0.00079576  1
  Al  Al14  1  0.66746265  0.83253735  0.74882243  1
  Al  Al15  1  0.83333333  0.66666667  0.50171035  1
  N  N16  1  0.16666667  0.33333333  0.44401820  1
  N  N17  1  0.34676989  0.15323011  0.18620188  1
  N  N18  1  0.16666667  0.33333333  0.94906070  1
  N  N19  1  0.33275590  0.16724410  0.69391841  1
  N  N20  1  0.16721040  0.83360519  0.44516161  1
  N  N21  1  0.34676989  0.69353980  0.18620188  1
  N  N22  1  0.16371833  0.83185916  0.93867123  1
  N  N23  1  0.33275590  0.66551180  0.69391841  1
  N  N24  1  0.66639481  0.33278960  0.44516161  1
  N  N25  1  0.80646020  0.15323011  0.18620188  1
  N  N26  1  0.66814084  0.33628167  0.93867123  1
  N  N27  1  0.83448820  0.16724410  0.69391841  1
  N  N28  1  0.66639481  0.83360519  0.44516161  1
  N  N29  1  0.83333333  0.66666667  0.19378484  1
  N  N30  1  0.66814084  0.83185916  0.93867123  1
  N  N31  1  0.83333333  0.66666667  0.69115321  1
