# generated using pymatgen
data_Al15WN16
_symmetry_space_group_name_H-M   'P 1'
_cell_length_a   6.31246865
_cell_length_b   6.31246865
_cell_length_c   10.01995316
_cell_angle_alpha   90.00000000
_cell_angle_beta   90.00000000
_cell_angle_gamma   119.99999997
_symmetry_Int_Tables_number   1
_chemical_formula_structural   Al15WN16
_chemical_formula_sum   'Al15 W1 N16'
_cell_volume   345.77595658
_cell_formula_units_Z   1
loop_
 _symmetry_equiv_pos_site_id
 _symmetry_equiv_pos_as_xyz
  1  'x, y, z'
loop_
 _atom_site_type_symbol
 _atom_site_label
 _atom_site_symmetry_multiplicity
 _atom_site_fract_x
 _atom_site_fract_y
 _atom_site_fract_z
 _atom_site_occupancy
  W  W0  1  0.16666667  0.33333333  0.21406280  1
  Al  Al1  1  0.33768400  0.16231600  0.99752244  1
  Al  Al2  1  0.16666667  0.33333333  0.75356594  1
  Al  Al3  1  0.33115078  0.16884922  0.50056951  1
  Al  Al4  1  0.16597457  0.83298728  0.25724839  1
  Al  Al5  1  0.33768400  0.67536801  0.99752244  1
  Al  Al6  1  0.16547544  0.83273771  0.74886998  1
  Al  Al7  1  0.33115078  0.66230158  0.50056951  1
  Al  Al8  1  0.66701272  0.33402543  0.25724839  1
  Al  Al9  1  0.82463199  0.16231600  0.99752244  1
  Al  Al10  1  0.66726229  0.33452456  0.74886998  1
  Al  Al11  1  0.83769842  0.16884922  0.50056951  1
  Al  Al12  1  0.66701272  0.83298728  0.25724839  1
  Al  Al13  1  0.83333333  0.66666667  0.00076646  1
  Al  Al14  1  0.66726229  0.83273771  0.74886998  1
  Al  Al15  1  0.83333333  0.66666667  0.50284221  1
  N  N16  1  0.16666667  0.33333333  0.43817705  1
  N  N17  1  0.34762428  0.15237572  0.18777252  1
  N  N18  1  0.16666667  0.33333333  0.95041236  1
  N  N19  1  0.33227368  0.16772632  0.69321375  1
  N  N20  1  0.16643683  0.83321842  0.44586544  1
  N  N21  1  0.34762428  0.69524855  0.18777252  1
  N  N22  1  0.16415298  0.83207648  0.93900305  1
  N  N23  1  0.33227368  0.66454737  0.69321375  1
  N  N24  1  0.66678158  0.33356317  0.44586544  1
  N  N25  1  0.80475145  0.15237572  0.18777252  1
  N  N26  1  0.66792352  0.33584702  0.93900305  1
  N  N27  1  0.83545263  0.16772632  0.69321375  1
  N  N28  1  0.66678158  0.83321842  0.44586544  1
  N  N29  1  0.83333333  0.66666667  0.19404294  1
  N  N30  1  0.66792352  0.83207648  0.93900305  1
  N  N31  1  0.83333333  0.66666667  0.69193497  1
