# generated using pymatgen
data_TiNb3N4
_symmetry_space_group_name_H-M   'P 1'
_cell_length_a   7.28972204
_cell_length_b   7.28972204
_cell_length_c   4.35535396
_cell_angle_alpha   89.99925437
_cell_angle_beta   90.00074564
_cell_angle_gamma   120.55258675
_symmetry_Int_Tables_number   1
_chemical_formula_structural   TiNb3N4
_chemical_formula_sum   'Ti2 Nb6 N8'
_cell_volume   199.31075839
_cell_formula_units_Z   2
loop_
 _symmetry_equiv_pos_site_id
 _symmetry_equiv_pos_as_xyz
  1  'x, y, z'
loop_
 _atom_site_type_symbol
 _atom_site_label
 _atom_site_symmetry_multiplicity
 _atom_site_fract_x
 _atom_site_fract_y
 _atom_site_fract_z
 _atom_site_occupancy
  Nb  Nb0  1  0.16738690  0.33261304  0.44099968  1
  Nb  Nb1  1  0.32907468  0.17092538  0.94101145  1
  Nb  Nb2  1  0.16528250  0.83471750  0.44099742  1
  Nb  Nb3  1  0.66528250  0.33471750  0.44099742  1
  Nb  Nb4  1  0.66738690  0.83261304  0.44099968  1
  Nb  Nb5  1  0.82907468  0.67092538  0.94101145  1
  N  N6  1  0.16161611  0.33838383  0.94099839  1
  N  N7  1  0.33336648  0.16663352  0.44100629  1
  N  N8  1  0.17394520  0.82605482  0.94099398  1
  N  N9  1  0.33195914  0.66804087  0.44099627  1
  N  N10  1  0.67394520  0.32605482  0.94099398  1
  N  N11  1  0.83195914  0.16804087  0.44099627  1
  N  N12  1  0.66161611  0.83838383  0.94099839  1
  N  N13  1  0.83336648  0.66663352  0.44100629  1
  Ti  Ti14  1  0.33736899  0.66263105  0.94099652  1
  Ti  Ti15  1  0.83736899  0.16263105  0.94099652  1
