# generated using pymatgen
data_Hf3TiN4
_symmetry_space_group_name_H-M   'P 1'
_cell_length_a   7.39291686
_cell_length_b   7.39291685
_cell_length_c   4.46283803
_cell_angle_alpha   89.99141695
_cell_angle_beta   90.00858312
_cell_angle_gamma   120.06696006
_symmetry_Int_Tables_number   1
_chemical_formula_structural   Hf3TiN4
_chemical_formula_sum   'Hf6 Ti2 N8'
_cell_volume   211.09598119
_cell_formula_units_Z   2
loop_
 _symmetry_equiv_pos_site_id
 _symmetry_equiv_pos_as_xyz
  1  'x, y, z'
loop_
 _atom_site_type_symbol
 _atom_site_label
 _atom_site_symmetry_multiplicity
 _atom_site_fract_x
 _atom_site_fract_y
 _atom_site_fract_z
 _atom_site_occupancy
  Hf  Hf0  1  0.16462314  0.33537686  0.44099564  1
  Hf  Hf1  1  0.33168674  0.16831326  0.94100640  1
  Hf  Hf2  1  0.16873798  0.83126202  0.44099027  1
  Hf  Hf3  1  0.66873798  0.33126202  0.44099027  1
  Hf  Hf4  1  0.66462314  0.83537686  0.44099564  1
  Hf  Hf5  1  0.83168674  0.66831326  0.94100640  1
  N  N6  1  0.16197669  0.33802331  0.94101316  1
  N  N7  1  0.33351431  0.16648569  0.44098133  1
  N  N8  1  0.17140302  0.82859698  0.94100745  1
  N  N9  1  0.33294962  0.66705038  0.44101243  1
  N  N10  1  0.67140302  0.32859698  0.94100745  1
  N  N11  1  0.83294962  0.16705038  0.44101243  1
  N  N12  1  0.66197669  0.83802331  0.94101316  1
  N  N13  1  0.83351431  0.66648569  0.44098133  1
  Ti  Ti14  1  0.33510851  0.66489149  0.94099331  1
  Ti  Ti15  1  0.83510851  0.16489149  0.94099331  1
