# generated using pymatgen
data_Al15ReN16
_symmetry_space_group_name_H-M   'P 1'
_cell_length_a   6.30691866
_cell_length_b   6.30691866
_cell_length_c   10.00767207
_cell_angle_alpha   90.00000000
_cell_angle_beta   90.00000000
_cell_angle_gamma   120.00000000
_symmetry_Int_Tables_number   1
_chemical_formula_structural   Al15ReN16
_chemical_formula_sum   'Al15 Re1 N16'
_cell_volume   344.74514414
_cell_formula_units_Z   1
loop_
 _symmetry_equiv_pos_site_id
 _symmetry_equiv_pos_as_xyz
  1  'x, y, z'
loop_
 _atom_site_type_symbol
 _atom_site_label
 _atom_site_symmetry_multiplicity
 _atom_site_fract_x
 _atom_site_fract_y
 _atom_site_fract_z
 _atom_site_occupancy
  Re  Re0  1  0.16666667  0.33333333  0.21053327  1
  Al  Al1  1  0.33732426  0.16267574  0.99842366  1
  Al  Al2  1  0.16666667  0.33333333  0.75366110  1
  Al  Al3  1  0.33075664  0.16924336  0.49991130  1
  Al  Al4  1  0.16543211  0.83271605  0.25794223  1
  Al  Al5  1  0.33732426  0.67464853  0.99842366  1
  Al  Al6  1  0.16573279  0.83286639  0.74893234  1
  Al  Al7  1  0.33075664  0.66151329  0.49991130  1
  Al  Al8  1  0.66728395  0.33456789  0.25794223  1
  Al  Al9  1  0.82535147  0.16267574  0.99842366  1
  Al  Al10  1  0.66713361  0.33426721  0.74893234  1
  Al  Al11  1  0.83848671  0.16924336  0.49991130  1
  Al  Al12  1  0.66728395  0.83271605  0.25794223  1
  Al  Al13  1  0.83333333  0.66666667  0.00053635  1
  Al  Al14  1  0.66713361  0.83286639  0.74893234  1
  Al  Al15  1  0.83333333  0.66666667  0.50339082  1
  N  N16  1  0.16666667  0.33333333  0.43593162  1
  N  N17  1  0.34816473  0.15183527  0.18820779  1
  N  N18  1  0.16666667  0.33333333  0.95019691  1
  N  N19  1  0.33206580  0.16793420  0.69286540  1
  N  N20  1  0.16616142  0.83308070  0.44617852  1
  N  N21  1  0.34816473  0.69632948  0.18820779  1
  N  N22  1  0.16440097  0.83220048  0.93924834  1
  N  N23  1  0.33206580  0.66413161  0.69286540  1
  N  N24  1  0.66691930  0.33383858  0.44617852  1
  N  N25  1  0.80367052  0.15183527  0.18820779  1
  N  N26  1  0.66779952  0.33559903  0.93924834  1
  N  N27  1  0.83586839  0.16793420  0.69286540  1
  N  N28  1  0.66691930  0.83308070  0.44617852  1
  N  N29  1  0.83333333  0.66666667  0.19428844  1
  N  N30  1  0.66779952  0.83220048  0.93924834  1
  N  N31  1  0.83333333  0.66666667  0.69233280  1
