# generated using pymatgen
data_AlN
_symmetry_space_group_name_H-M   'P 1'
_cell_length_a   8.01885222
_cell_length_b   8.01958022
_cell_length_c   5.41902902
_cell_angle_alpha   90.01437800
_cell_angle_beta   90.00229161
_cell_angle_gamma   102.61011737
_symmetry_Int_Tables_number   1
_chemical_formula_structural   AlN
_chemical_formula_sum   'Al16 N16'
_cell_volume   340.07987691
_cell_formula_units_Z   16
loop_
 _symmetry_equiv_pos_site_id
 _symmetry_equiv_pos_as_xyz
  1  'x, y, z'
loop_
 _atom_site_type_symbol
 _atom_site_label
 _atom_site_symmetry_multiplicity
 _atom_site_fract_x
 _atom_site_fract_y
 _atom_site_fract_z
 _atom_site_occupancy
  Al  Al0  1  0.99937456  0.49949400  0.33342323  1
  Al  Al1  1  0.24952962  0.24960691  0.33340557  1
  Al  Al2  1  0.12462265  0.37456112  0.83353346  1
  Al  Al3  1  0.49945910  0.99961101  0.33328930  1
  Al  Al4  1  0.37464672  0.12450514  0.83333629  1
  Al  Al5  1  0.87458613  0.62450698  0.83317797  1
  Al  Al6  1  0.87444950  0.12458053  0.16670006  1
  Al  Al7  1  0.74955446  0.24938375  0.66676228  1
  Al  Al8  1  0.12451003  0.87453032  0.16665120  1
  Al  Al9  1  0.99975703  0.99960116  0.66666819  1
  Al  Al10  1  0.24953387  0.74939092  0.66672053  1
  Al  Al11  1  0.49967968  0.49954319  0.66674351  1
  Al  Al12  1  0.74963659  0.74976494  0.33313332  1
  Al  Al13  1  0.62456949  0.87444445  0.83309134  1
  Al  Al14  1  0.62448884  0.37467397  0.16673592  1
  Al  Al15  1  0.37453348  0.62464867  0.16687879  1
  N  N16  1  0.19027311  0.69038759  0.33333714  1
  N  N17  1  0.44039472  0.44054322  0.33339759  1
  N  N18  1  0.31555999  0.56544733  0.83347430  1
  N  N19  1  0.69030113  0.19053750  0.33328617  1
  N  N20  1  0.56550332  0.31542591  0.83333609  1
  N  N21  1  0.94049538  0.94060425  0.33325420  1
  N  N22  1  0.81547824  0.06531800  0.83324621  1
  N  N23  1  0.06545900  0.81539073  0.83321748  1
  N  N24  1  0.81539844  0.56554899  0.16656508  1
  N  N25  1  0.06535746  0.31543458  0.16682275  1
  N  N26  1  0.94043220  0.44027964  0.66679019  1
  N  N27  1  0.31538781  0.06544963  0.16666091  1
  N  N28  1  0.19059942  0.19050487  0.66680125  1
  N  N29  1  0.56545512  0.81555379  0.16655904  1
  N  N30  1  0.44041321  0.94031332  0.66657957  1
  N  N31  1  0.69055972  0.69041358  0.66642107  1
