# generated using pymatgen
data_AlN
_symmetry_space_group_name_H-M   'P 1'
_cell_length_a   6.25643446
_cell_length_b   6.25643446
_cell_length_c   10.03059875
_cell_angle_alpha   90.00000000
_cell_angle_beta   90.00000000
_cell_angle_gamma   120.00000000
_symmetry_Int_Tables_number   1
_chemical_formula_structural   AlN
_chemical_formula_sum   'Al16 N16'
_cell_volume   340.02534383
_cell_formula_units_Z   16
loop_
 _symmetry_equiv_pos_site_id
 _symmetry_equiv_pos_as_xyz
  1  'x, y, z'
loop_
 _atom_site_type_symbol
 _atom_site_label
 _atom_site_symmetry_multiplicity
 _atom_site_fract_x
 _atom_site_fract_y
 _atom_site_fract_z
 _atom_site_occupancy
  Al  Al0  1  0.66666667  0.33333333  0.74989790  1
  Al  Al1  1  0.83335151  0.16664849  0.99983977  1
  Al  Al2  1  0.83335151  0.66670301  0.99983977  1
  Al  Al3  1  0.33329699  0.16664849  0.99983977  1
  Al  Al4  1  0.66666667  0.33333333  0.24979396  1
  Al  Al5  1  0.83332128  0.16667872  0.49985402  1
  Al  Al6  1  0.83332128  0.66664256  0.49985402  1
  Al  Al7  1  0.33335744  0.16667872  0.49985402  1
  Al  Al8  1  0.16666299  0.83333701  0.74982740  1
  Al  Al9  1  0.16666299  0.33332599  0.74982740  1
  Al  Al10  1  0.66667401  0.83333701  0.74982740  1
  Al  Al11  1  0.16668129  0.83331871  0.24987746  1
  Al  Al12  1  0.16668129  0.33336257  0.24987746  1
  Al  Al13  1  0.66663743  0.83331871  0.24987746  1
  Al  Al14  1  0.33333333  0.66666667  0.99980109  1
  Al  Al15  1  0.33333333  0.66666667  0.49991463  1
  N  N16  1  0.66666667  0.33333333  0.55921051  1
  N  N17  1  0.83333604  0.16666396  0.80913612  1
  N  N18  1  0.83333604  0.66667207  0.80913612  1
  N  N19  1  0.33332793  0.16666396  0.80913612  1
  N  N20  1  0.66666667  0.33333333  0.05909582  1
  N  N21  1  0.83331253  0.16668747  0.30915047  1
  N  N22  1  0.83331253  0.66662505  0.30915047  1
  N  N23  1  0.33337495  0.16668747  0.30915047  1
  N  N24  1  0.16665444  0.83334556  0.55914969  1
  N  N25  1  0.16665444  0.33330888  0.55914969  1
  N  N26  1  0.66669112  0.83334556  0.55914969  1
  N  N27  1  0.16668011  0.83331989  0.05914730  1
  N  N28  1  0.16668011  0.33336022  0.05914730  1
  N  N29  1  0.66663978  0.83331989  0.05914730  1
  N  N30  1  0.33333333  0.66666667  0.80909858  1
  N  N31  1  0.33333333  0.66666667  0.30924082  1
