# generated using pymatgen
data_MnAl31N32
_symmetry_space_group_name_H-M   'P 1'
_cell_length_a   8.13866057
_cell_length_b   8.13866057
_cell_length_c   8.13866057
_cell_angle_alpha   90.00000000
_cell_angle_beta   90.00000000
_cell_angle_gamma   90.00000000
_symmetry_Int_Tables_number   1
_chemical_formula_structural   MnAl31N32
_chemical_formula_sum   'Mn1 Al31 N32'
_cell_volume   539.08693752
_cell_formula_units_Z   1
loop_
 _symmetry_equiv_pos_site_id
 _symmetry_equiv_pos_as_xyz
  1  'x, y, z'
loop_
 _atom_site_type_symbol
 _atom_site_label
 _atom_site_symmetry_multiplicity
 _atom_site_fract_x
 _atom_site_fract_y
 _atom_site_fract_z
 _atom_site_occupancy
  Al  Al0  1  0.00000000  0.00000000  0.00000000  1
  Al  Al1  1  0.00000000  0.25013652  0.25013652  1
  Al  Al2  1  0.25013652  0.00000000  0.25013652  1
  Al  Al3  1  0.25013652  0.25013652  0.00000000  1
  Al  Al4  1  0.00000000  0.00000000  0.50000000  1
  Al  Al5  1  0.00000000  0.25013652  0.74986348  1
  Al  Al6  1  0.25013652  0.00000000  0.74986348  1
  Al  Al7  1  0.25069662  0.25069662  0.50000000  1
  Al  Al8  1  0.00000000  0.50000000  0.00000000  1
  Al  Al9  1  0.00000000  0.74986348  0.25013652  1
  Al  Al10  1  0.25069662  0.50000000  0.25069662  1
  Al  Al11  1  0.25013652  0.74986348  0.00000000  1
  Al  Al12  1  0.00000000  0.50000000  0.50000000  1
  Al  Al13  1  0.00000000  0.74986348  0.74986348  1
  Al  Al14  1  0.25069662  0.50000000  0.74930338  1
  Al  Al15  1  0.25069662  0.74930338  0.50000000  1
  Al  Al16  1  0.50000000  0.00000000  0.00000000  1
  Al  Al17  1  0.50000000  0.25069662  0.25069662  1
  Al  Al18  1  0.74986348  0.00000000  0.25013652  1
  Al  Al19  1  0.74986348  0.25013652  0.00000000  1
  Al  Al20  1  0.50000000  0.00000000  0.50000000  1
  Al  Al21  1  0.50000000  0.25069662  0.74930338  1
  Al  Al22  1  0.74986348  0.00000000  0.74986348  1
  Al  Al23  1  0.74930338  0.25069662  0.50000000  1
  Al  Al24  1  0.50000000  0.50000000  0.00000000  1
  Al  Al25  1  0.50000000  0.74930338  0.25069662  1
  Al  Al26  1  0.74930338  0.50000000  0.25069662  1
  Al  Al27  1  0.74986348  0.74986348  0.00000000  1
  Al  Al28  1  0.50000000  0.74930338  0.74930338  1
  Al  Al29  1  0.74930338  0.50000000  0.74930338  1
  Al  Al30  1  0.74930338  0.74930338  0.50000000  1
  N  N31  1  0.25019456  0.25019456  0.25019456  1
  N  N32  1  0.24996990  0.00000000  0.00000000  1
  N  N33  1  0.00000000  0.24996990  0.00000000  1
  N  N34  1  0.00000000  0.00000000  0.24996990  1
  N  N35  1  0.25019456  0.25019456  0.74980544  1
  N  N36  1  0.24995195  0.00000000  0.50000000  1
  N  N37  1  0.00000000  0.24995195  0.50000000  1
  N  N38  1  0.00000000  0.00000000  0.75003010  1
  N  N39  1  0.25019456  0.74980544  0.25019456  1
  N  N40  1  0.24995195  0.50000000  0.00000000  1
  N  N41  1  0.00000000  0.75003010  0.00000000  1
  N  N42  1  0.00000000  0.50000000  0.24995195  1
  N  N43  1  0.25019456  0.74980544  0.74980544  1
  N  N44  1  0.24799126  0.50000000  0.50000000  1
  N  N45  1  0.00000000  0.75004805  0.50000000  1
  N  N46  1  0.00000000  0.50000000  0.75004805  1
  N  N47  1  0.74980544  0.25019456  0.25019456  1
  N  N48  1  0.75003010  0.00000000  0.00000000  1
  N  N49  1  0.50000000  0.24995195  0.00000000  1
  N  N50  1  0.50000000  0.00000000  0.24995195  1
  N  N51  1  0.74980544  0.25019456  0.74980544  1
  N  N52  1  0.75004805  0.00000000  0.50000000  1
  N  N53  1  0.50000000  0.24799126  0.50000000  1
  N  N54  1  0.50000000  0.00000000  0.75004805  1
  N  N55  1  0.74980544  0.74980544  0.25019456  1
  N  N56  1  0.75004805  0.50000000  0.00000000  1
  N  N57  1  0.50000000  0.75004805  0.00000000  1
  N  N58  1  0.50000000  0.50000000  0.24799126  1
  N  N59  1  0.74980544  0.74980544  0.74980544  1
  N  N60  1  0.75200874  0.50000000  0.50000000  1
  N  N61  1  0.50000000  0.75200874  0.50000000  1
  N  N62  1  0.50000000  0.50000000  0.75200874  1
  Mn  Mn63  1  0.50000000  0.50000000  0.50000000  1
