# generated using pymatgen
data_Y3TiN4
_symmetry_space_group_name_H-M   'P 1'
_cell_length_a   7.77983863
_cell_length_b   7.77983862
_cell_length_c   4.77572336
_cell_angle_alpha   90.00051638
_cell_angle_beta   89.99948364
_cell_angle_gamma   119.98073393
_symmetry_Int_Tables_number   1
_chemical_formula_structural   Y3TiN4
_chemical_formula_sum   'Y6 Ti2 N8'
_cell_volume   250.37747240
_cell_formula_units_Z   2
loop_
 _symmetry_equiv_pos_site_id
 _symmetry_equiv_pos_as_xyz
  1  'x, y, z'
loop_
 _atom_site_type_symbol
 _atom_site_label
 _atom_site_symmetry_multiplicity
 _atom_site_fract_x
 _atom_site_fract_y
 _atom_site_fract_z
 _atom_site_occupancy
  Y  Y0  1  0.16262413  0.33737581  0.44095075  1
  Y  Y1  1  0.33548747  0.16451262  0.94092421  1
  Y  Y2  1  0.17198196  0.82801801  0.44094650  1
  Y  Y3  1  0.67198196  0.32801801  0.44094650  1
  Y  Y4  1  0.66262413  0.83737581  0.44095075  1
  Y  Y5  1  0.83548747  0.66451262  0.94092421  1
  N  N6  1  0.14686308  0.35313685  0.94095526  1
  N  N7  1  0.33353149  0.16646854  0.44092460  1
  N  N8  1  0.18290112  0.81709890  0.94095260  1
  N  N9  1  0.33467081  0.66532912  0.44144087  1
  N  N10  1  0.68290112  0.31709890  0.94095260  1
  N  N11  1  0.83467081  0.16532912  0.44144087  1
  N  N12  1  0.64686308  0.85313685  0.94095526  1
  N  N13  1  0.83353149  0.66646854  0.44092460  1
  Ti  Ti14  1  0.33193994  0.66806016  0.94090522  1
  Ti  Ti15  1  0.83193994  0.16806016  0.94090522  1
