# generated using pymatgen
data_Al15VN16
_symmetry_space_group_name_H-M   'P 1'
_cell_length_a   6.28395356
_cell_length_b   6.28395356
_cell_length_c   10.04451784
_cell_angle_alpha   90.00000000
_cell_angle_beta   90.00000000
_cell_angle_gamma   120.00000000
_symmetry_Int_Tables_number   1
_chemical_formula_structural   Al15VN16
_chemical_formula_sum   'Al15 V1 N16'
_cell_volume   343.49914459
_cell_formula_units_Z   1
loop_
 _symmetry_equiv_pos_site_id
 _symmetry_equiv_pos_as_xyz
  1  'x, y, z'
loop_
 _atom_site_type_symbol
 _atom_site_label
 _atom_site_symmetry_multiplicity
 _atom_site_fract_x
 _atom_site_fract_y
 _atom_site_fract_z
 _atom_site_occupancy
  V  V0  1  0.16666667  0.33333333  0.24222756  1
  Al  Al1  1  0.33446043  0.16553957  0.99819227  1
  Al  Al2  1  0.16666667  0.33333333  0.74978347  1
  Al  Al3  1  0.33308816  0.16691184  0.50072968  1
  Al  Al4  1  0.16692627  0.83346313  0.25227281  1
  Al  Al5  1  0.33446043  0.66892088  0.99819227  1
  Al  Al6  1  0.16611439  0.83305719  0.74980939  1
  Al  Al7  1  0.33308816  0.66617632  0.50072968  1
  Al  Al8  1  0.66653687  0.33307373  0.25227281  1
  Al  Al9  1  0.83107912  0.16553957  0.99819227  1
  Al  Al10  1  0.66694281  0.33388561  0.74980939  1
  Al  Al11  1  0.83382368  0.16691184  0.50072968  1
  Al  Al12  1  0.66653687  0.83346313  0.25227281  1
  Al  Al13  1  0.83333333  0.66666667  0.00062531  1
  Al  Al14  1  0.66694281  0.83305719  0.74980939  1
  Al  Al15  1  0.83333333  0.66666667  0.50088240  1
  N  N16  1  0.16666667  0.33333333  0.44440433  1
  N  N17  1  0.33792893  0.16207107  0.18863486  1
  N  N18  1  0.16666667  0.33333333  0.94249686  1
  N  N19  1  0.33350821  0.16649179  0.69198555  1
  N  N20  1  0.16673551  0.83336774  0.44218772  1
  N  N21  1  0.33792893  0.67585787  0.18863486  1
  N  N22  1  0.16531955  0.83265977  0.94029177  1
  N  N23  1  0.33350821  0.66701644  0.69198555  1
  N  N24  1  0.66663226  0.33326449  0.44218772  1
  N  N25  1  0.82414213  0.16207107  0.18863486  1
  N  N26  1  0.66734023  0.33468045  0.94029177  1
  N  N27  1  0.83298356  0.16649179  0.69198555  1
  N  N28  1  0.66663226  0.83336774  0.44218772  1
  N  N29  1  0.83333333  0.66666667  0.19219368  1
  N  N30  1  0.66734023  0.83265977  0.94029177  1
  N  N31  1  0.83333333  0.66666667  0.69107426  1
