# generated using pymatgen
data_Li7La3Zr2O12
_symmetry_space_group_name_H-M   'P 1'
_cell_length_a   11.27034623
_cell_length_b   11.27034623
_cell_length_c   11.27034623
_cell_angle_alpha   111.74271704
_cell_angle_beta   108.34755207
_cell_angle_gamma   108.34755207
_symmetry_Int_Tables_number   1
_chemical_formula_structural   Li7La3Zr2O12
_chemical_formula_sum   'Li28 La12 Zr8 O48'
_cell_volume   1100.71626374
_cell_formula_units_Z   4
loop_
 _symmetry_equiv_pos_site_id
 _symmetry_equiv_pos_as_xyz
  1  'x, y, z'
loop_
 _atom_site_type_symbol
 _atom_site_label
 _atom_site_symmetry_multiplicity
 _atom_site_fract_x
 _atom_site_fract_y
 _atom_site_fract_z
 _atom_site_occupancy
  Li  Li0  1  0.75000000  0.62500000  0.37500000  1
  Li  Li1  1  0.25000000  0.87500000  0.12500000  1
  Li  Li2  1  0.75000000  0.12500000  0.87500000  1
  Li  Li3  1  0.25000000  0.37500000  0.62500000  1
  Li  Li4  1  0.39233196  0.69616598  0.44616598  1
  Li  Li5  1  0.25000000  0.44616598  0.05383402  1
  Li  Li6  1  0.25000000  0.80383402  0.69616598  1
  Li  Li7  1  0.10766804  0.05383402  0.80383402  1
  Li  Li8  1  0.60766804  0.30383402  0.55383402  1
  Li  Li9  1  0.75000000  0.55383402  0.94616598  1
  Li  Li10  1  0.75000000  0.19616598  0.30383402  1
  Li  Li11  1  0.89233196  0.94616598  0.19616598  1
  Li  Li12  1  0.83236660  0.11244000  0.10777779  1
  Li  Li13  1  0.00466221  0.22458881  0.39222221  1
  Li  Li14  1  0.49533779  0.38756000  0.71992660  1
  Li  Li15  1  0.66763340  0.27541119  0.78007340  1
  Li  Li16  1  0.66763340  0.39222221  0.38756000  1
  Li  Li17  1  0.00466221  0.78007340  0.11244000  1
  Li  Li18  1  0.49533779  0.10777779  0.27541119  1
  Li  Li19  1  0.83236660  0.71992660  0.22458881  1
  Li  Li20  1  0.16763340  0.88756000  0.89222221  1
  Li  Li21  1  0.99533779  0.77541119  0.60777779  1
  Li  Li22  1  0.50466221  0.61244000  0.28007340  1
  Li  Li23  1  0.33236660  0.72458881  0.21992660  1
  Li  Li24  1  0.33236660  0.60777779  0.61244000  1
  Li  Li25  1  0.99533779  0.21992660  0.88756000  1
  Li  Li26  1  0.50466221  0.89222221  0.72458881  1
  Li  Li27  1  0.16763340  0.28007340  0.77541119  1
  La  La28  1  0.75000000  0.87500000  0.62500000  1
  La  La29  1  0.25000000  0.62500000  0.87500000  1
  La  La30  1  0.25000000  0.12500000  0.37500000  1
  La  La31  1  0.75000000  0.37500000  0.12500000  1
  La  La32  1  0.87195848  0.62195848  0.75000000  1
  La  La33  1  0.62804152  0.87804152  0.25000000  1
  La  La34  1  0.62804152  0.75000000  0.87804152  1
  La  La35  1  0.87195848  0.25000000  0.62195848  1
  La  La36  1  0.12804152  0.37804152  0.25000000  1
  La  La37  1  0.37195848  0.12195848  0.75000000  1
  La  La38  1  0.37195848  0.25000000  0.12195848  1
  La  La39  1  0.12804152  0.75000000  0.37804152  1
  Zr  Zr40  1  0.00000000  0.00000000  0.00000000  1
  Zr  Zr41  1  0.00000000  0.50000000  0.50000000  1
  Zr  Zr42  1  0.50000000  0.50000000  0.00000000  1
  Zr  Zr43  1  0.50000000  0.00000000  0.50000000  1
  Zr  Zr44  1  0.50000000  0.50000000  0.50000000  1
  Zr  Zr45  1  0.00000000  0.50000000  0.00000000  1
  Zr  Zr46  1  0.50000000  0.00000000  0.00000000  1
  Zr  Zr47  1  0.00000000  0.00000000  0.50000000  1
  O  O48  1  0.97985594  0.88149905  0.79132299  1
  O  O49  1  0.09017606  0.68853295  0.70867701  1
  O  O50  1  0.40982394  0.61850095  0.09835689  1
  O  O51  1  0.52014406  0.81146705  0.40164311  1
  O  O52  1  0.52014406  0.70867701  0.61850095  1
  O  O53  1  0.09017606  0.40164311  0.88149905  1
  O  O54  1  0.40982394  0.79132299  0.81146705  1
  O  O55  1  0.97985594  0.09835689  0.68853295  1
  O  O56  1  0.02014406  0.11850095  0.20867701  1
  O  O57  1  0.90982394  0.31146705  0.29132299  1
  O  O58  1  0.59017606  0.38149905  0.90164311  1
  O  O59  1  0.47985594  0.18853295  0.59835689  1
  O  O60  1  0.47985594  0.29132299  0.38149905  1
  O  O61  1  0.90982394  0.59835689  0.11850095  1
  O  O62  1  0.59017606  0.20867701  0.18853295  1
  O  O63  1  0.02014406  0.90164311  0.31146705  1
  O  O64  1  0.09258686  0.41115240  0.61249334  1
  O  O65  1  0.79865906  0.98009352  0.88750666  1
  O  O66  1  0.70134094  0.08884760  0.68143446  1
  O  O67  1  0.40741314  0.51990648  0.81856554  1
  O  O68  1  0.40741314  0.88750666  0.08884760  1
  O  O69  1  0.79865906  0.81856554  0.41115240  1
  O  O70  1  0.70134094  0.61249334  0.51990648  1
  O  O71  1  0.09258686  0.68143446  0.98009352  1
  O  O72  1  0.90741314  0.58884760  0.38750666  1
  O  O73  1  0.20134094  0.01990648  0.11249334  1
  O  O74  1  0.29865906  0.91115240  0.31856554  1
  O  O75  1  0.59258686  0.48009352  0.18143446  1
  O  O76  1  0.59258686  0.11249334  0.91115240  1
  O  O77  1  0.20134094  0.18143446  0.58884760  1
  O  O78  1  0.29865906  0.38750666  0.48009352  1
  O  O79  1  0.90741314  0.31856554  0.01990648  1
  O  O80  1  0.82265145  0.40345209  0.52626541  1
  O  O81  1  0.87718668  0.79638604  0.97373459  1
  O  O82  1  0.62281332  0.09654791  0.41919936  1
  O  O83  1  0.67734855  0.70361396  0.08080064  1
  O  O84  1  0.67734855  0.97373459  0.09654791  1
  O  O85  1  0.87718668  0.08080064  0.40345209  1
  O  O86  1  0.62281332  0.52626541  0.70361396  1
  O  O87  1  0.82265145  0.41919936  0.79638604  1
  O  O88  1  0.17734855  0.59654791  0.47373459  1
  O  O89  1  0.12281332  0.20361396  0.02626541  1
  O  O90  1  0.37718668  0.90345209  0.58080064  1
  O  O91  1  0.32265145  0.29638604  0.91919936  1
  O  O92  1  0.32265145  0.02626541  0.90345209  1
  O  O93  1  0.12281332  0.91919936  0.59654791  1
  O  O94  1  0.37718668  0.47373459  0.29638604  1
  O  O95  1  0.17734855  0.58080064  0.20361396  1
