# generated using pymatgen
data_AlOsN2
_symmetry_space_group_name_H-M   'P 1'
_cell_length_a   7.74511545
_cell_length_b   7.49595752
_cell_length_c   2.75793825
_cell_angle_alpha   90.00000000
_cell_angle_beta   90.00000000
_cell_angle_gamma   101.60801337
_symmetry_Int_Tables_number   1
_chemical_formula_structural   AlOsN2
_chemical_formula_sum   'Al4 Os4 N8'
_cell_volume   156.84290643
_cell_formula_units_Z   4
loop_
 _symmetry_equiv_pos_site_id
 _symmetry_equiv_pos_as_xyz
  1  'x, y, z'
loop_
 _atom_site_type_symbol
 _atom_site_label
 _atom_site_symmetry_multiplicity
 _atom_site_fract_x
 _atom_site_fract_y
 _atom_site_fract_z
 _atom_site_occupancy
  Al  Al0  1  0.09678489  0.83549670  0.50000000  1
  Al  Al1  1  0.98502744  0.48001692  0.00000000  1
  Al  Al2  1  0.25565066  0.25434733  0.00000000  1
  Al  Al3  1  0.50901750  0.04126557  0.00000000  1
  N  N4  1  0.09587577  0.35357734  0.50000000  1
  N  N5  1  0.09949988  0.02201950  0.00000000  1
  N  N6  1  0.42205396  0.19242613  0.50000000  1
  N  N7  1  0.18352908  0.68735025  0.00000000  1
  N  N8  1  0.52993190  0.84873277  0.50000000  1
  N  N9  1  0.55918421  0.55397202  0.00000000  1
  N  N10  1  0.87388921  0.65443222  0.50000000  1
  N  N11  1  0.73766635  0.19047098  0.00000000  1
  Os  Os12  1  0.90315818  0.08975684  0.50000000  1
  Os  Os13  1  0.73739871  0.79374137  0.00000000  1
  Os  Os14  1  0.34917716  0.60529092  0.50000000  1
  Os  Os15  1  0.66215509  0.39710315  0.50000000  1
