# generated using pymatgen
data_AlWN2
_symmetry_space_group_name_H-M   'P 1'
_cell_length_a   7.69272187
_cell_length_b   7.40408961
_cell_length_c   2.81584557
_cell_angle_alpha   90.00000000
_cell_angle_beta   90.00000000
_cell_angle_gamma   103.11917400
_symmetry_Int_Tables_number   1
_chemical_formula_structural   AlWN2
_chemical_formula_sum   'Al4 W4 N8'
_cell_volume   156.19780436
_cell_formula_units_Z   4
loop_
 _symmetry_equiv_pos_site_id
 _symmetry_equiv_pos_as_xyz
  1  'x, y, z'
loop_
 _atom_site_type_symbol
 _atom_site_label
 _atom_site_symmetry_multiplicity
 _atom_site_fract_x
 _atom_site_fract_y
 _atom_site_fract_z
 _atom_site_occupancy
  Al  Al0  1  0.14601077  0.86981985  0.50000000  1
  Al  Al1  1  0.03956021  0.50754295  0.00000000  1
  Al  Al2  1  0.22890458  0.22983203  0.00000000  1
  Al  Al3  1  0.49698224  0.05069819  0.00000000  1
  N  N4  1  0.09158104  0.34080095  0.50000000  1
  N  N5  1  0.02360260  0.98730728  0.00000000  1
  N  N6  1  0.33912158  0.09527825  0.50000000  1
  N  N7  1  0.24489163  0.72383672  0.00000000  1
  N  N8  1  0.59812675  0.91102366  0.50000000  1
  N  N9  1  0.44023240  0.43666120  0.00000000  1
  N  N10  1  0.91304425  0.62712189  0.50000000  1
  N  N11  1  0.72088915  0.24724953  0.00000000  1
  W  W12  1  0.86166151  0.10539836  0.50000000  1
  W  W13  1  0.76555277  0.77472783  0.00000000  1
  W  W14  1  0.43402164  0.65126971  0.50000000  1
  W  W15  1  0.65581692  0.44143161  0.50000000  1
