# generated using pymatgen
data_TaAlN2
_symmetry_space_group_name_H-M   'P 1'
_cell_length_a   7.65482408
_cell_length_b   7.41090463
_cell_length_c   2.94040141
_cell_angle_alpha   90.00000000
_cell_angle_beta   90.00000000
_cell_angle_gamma   110.01322255
_symmetry_Int_Tables_number   1
_chemical_formula_structural   TaAlN2
_chemical_formula_sum   'Ta4 Al4 N8'
_cell_volume   156.73369972
_cell_formula_units_Z   4
loop_
 _symmetry_equiv_pos_site_id
 _symmetry_equiv_pos_as_xyz
  1  'x, y, z'
loop_
 _atom_site_type_symbol
 _atom_site_label
 _atom_site_symmetry_multiplicity
 _atom_site_fract_x
 _atom_site_fract_y
 _atom_site_fract_z
 _atom_site_occupancy
  Al  Al0  1  0.12601632  0.86823794  0.50000000  1
  Al  Al1  1  0.01527374  0.50325686  0.00000000  1
  Al  Al2  1  0.24068396  0.23697644  0.00000000  1
  Al  Al3  1  0.47258584  0.00367210  0.00000000  1
  N  N4  1  0.12820266  0.37238692  0.50000000  1
  N  N5  1  0.02453489  0.99461235  0.00000000  1
  N  N6  1  0.36512323  0.12265979  0.50000000  1
  N  N7  1  0.24463337  0.75641743  0.00000000  1
  N  N8  1  0.59137384  0.90328636  0.50000000  1
  N  N9  1  0.47304141  0.46809204  0.00000000  1
  N  N10  1  0.91029861  0.62234150  0.50000000  1
  N  N11  1  0.76268554  0.26261117  0.00000000  1
  Ta  Ta12  1  0.86762843  0.10966574  0.50000000  1
  Ta  Ta13  1  0.74730635  0.75257679  0.00000000  1
  Ta  Ta14  1  0.39239534  0.62803188  0.50000000  1
  Ta  Ta15  1  0.63821647  0.39517472  0.50000000  1
