# generated using pymatgen
data_AlMoN2
_symmetry_space_group_name_H-M   'P 1'
_cell_length_a   7.61012464
_cell_length_b   7.37238501
_cell_length_c   2.83485692
_cell_angle_alpha   90.00000000
_cell_angle_beta   90.00000000
_cell_angle_gamma   104.91717109
_symmetry_Int_Tables_number   1
_chemical_formula_structural   AlMoN2
_chemical_formula_sum   'Al4 Mo4 N8'
_cell_volume   153.68887811
_cell_formula_units_Z   4
loop_
 _symmetry_equiv_pos_site_id
 _symmetry_equiv_pos_as_xyz
  1  'x, y, z'
loop_
 _atom_site_type_symbol
 _atom_site_label
 _atom_site_symmetry_multiplicity
 _atom_site_fract_x
 _atom_site_fract_y
 _atom_site_fract_z
 _atom_site_occupancy
  Al  Al0  1  0.14234352  0.87066232  0.50000000  1
  Al  Al1  1  0.03392197  0.50851146  0.00000000  1
  Al  Al2  1  0.23210663  0.23117903  0.00000000  1
  Al  Al3  1  0.49457329  0.03653808  0.00000000  1
  N  N4  1  0.10500343  0.35466585  0.50000000  1
  N  N5  1  0.02251097  0.99041034  0.00000000  1
  N  N6  1  0.34575065  0.10047387  0.50000000  1
  N  N7  1  0.24594973  0.73414073  0.00000000  1
  N  N8  1  0.59939104  0.90177532  0.50000000  1
  N  N9  1  0.44581000  0.44022118  0.00000000  1
  N  N10  1  0.90819410  0.62839799  0.50000000  1
  N  N11  1  0.72523784  0.24855766  0.00000000  1
  Mo  Mo12  1  0.86402027  0.10741869  0.50000000  1
  Mo  Mo13  1  0.76295469  0.77698151  0.00000000  1
  Mo  Mo14  1  0.41887639  0.63873822  0.50000000  1
  Mo  Mo15  1  0.65335547  0.43132775  0.50000000  1
