# generated using pymatgen
data_NbAlN2
_symmetry_space_group_name_H-M   'P 1'
_cell_length_a   7.65015958
_cell_length_b   7.43158857
_cell_length_c   2.96737258
_cell_angle_alpha   90.00000000
_cell_angle_beta   90.00000000
_cell_angle_gamma   109.73278508
_symmetry_Int_Tables_number   1
_chemical_formula_structural   NbAlN2
_chemical_formula_sum   'Nb4 Al4 N8'
_cell_volume   158.79686004
_cell_formula_units_Z   4
loop_
 _symmetry_equiv_pos_site_id
 _symmetry_equiv_pos_as_xyz
  1  'x, y, z'
loop_
 _atom_site_type_symbol
 _atom_site_label
 _atom_site_symmetry_multiplicity
 _atom_site_fract_x
 _atom_site_fract_y
 _atom_site_fract_z
 _atom_site_occupancy
  Al  Al0  1  0.12488972  0.86918052  0.50000000  1
  Al  Al1  1  0.01630261  0.50550498  0.00000000  1
  Al  Al2  1  0.24100962  0.23812697  0.00000000  1
  Al  Al3  1  0.47230105  0.00102899  0.00000000  1
  N  N4  1  0.12855044  0.37273272  0.50000000  1
  N  N5  1  0.02291767  0.99601114  0.00000000  1
  N  N6  1  0.36464094  0.12061250  0.50000000  1
  N  N7  1  0.24408993  0.75648794  0.00000000  1
  N  N8  1  0.59395347  0.89900610  0.50000000  1
  N  N9  1  0.47967124  0.47337053  0.00000000  1
  N  N10  1  0.90863034  0.62270284  0.50000000  1
  N  N11  1  0.75951679  0.26094855  0.00000000  1
  Nb  Nb12  1  0.86626263  0.11077446  0.50000000  1
  Nb  Nb13  1  0.74477339  0.75204953  0.00000000  1
  Nb  Nb14  1  0.39309869  0.62731413  0.50000000  1
  Nb  Nb15  1  0.63939145  0.39414812  0.50000000  1
