# generated using pymatgen
data_YAlN2
_symmetry_space_group_name_H-M   'P 1'
_cell_length_a   8.67008449
_cell_length_b   8.93778832
_cell_length_c   3.43335111
_cell_angle_alpha   90.00000000
_cell_angle_beta   90.00000000
_cell_angle_gamma   126.50877319
_symmetry_Int_Tables_number   1
_chemical_formula_structural   YAlN2
_chemical_formula_sum   'Y4 Al4 N8'
_cell_volume   213.84599476
_cell_formula_units_Z   4
loop_
 _symmetry_equiv_pos_site_id
 _symmetry_equiv_pos_as_xyz
  1  'x, y, z'
loop_
 _atom_site_type_symbol
 _atom_site_label
 _atom_site_symmetry_multiplicity
 _atom_site_fract_x
 _atom_site_fract_y
 _atom_site_fract_z
 _atom_site_occupancy
  Al  Al0  1  0.13580484  0.93250492  0.50000000  1
  Al  Al1  1  0.97784176  0.58274540  0.00000000  1
  Al  Al2  1  0.20741864  0.25741447  0.00000000  1
  Al  Al3  1  0.38676828  0.94000361  0.00000000  1
  N  N4  1  0.12899494  0.29071531  0.50000000  1
  N  N5  1  0.11848925  0.00623835  0.00000000  1
  N  N6  1  0.40929087  0.03455804  0.50000000  1
  N  N7  1  0.23739345  0.68352868  0.00000000  1
  N  N8  1  0.67643198  0.87098524  0.50000000  1
  N  N9  1  0.48438843  0.46717169  0.00000000  1
  N  N10  1  0.92049299  0.66893128  0.50000000  1
  N  N11  1  0.77867194  0.32429843  0.00000000  1
  Y  Y12  1  0.81926962  0.17893075  0.50000000  1
  Y  Y13  1  0.76989446  0.78270721  0.00000000  1
  Y  Y14  1  0.35585187  0.61030281  0.50000000  1
  Y  Y15  1  0.59299670  0.36896381  0.50000000  1
