# generated using pymatgen
data_AlNiN2
_symmetry_space_group_name_H-M   'P 1'
_cell_length_a   7.02743331
_cell_length_b   7.06545210
_cell_length_c   2.89064437
_cell_angle_alpha   90.00000000
_cell_angle_beta   90.00000000
_cell_angle_gamma   109.92230867
_symmetry_Int_Tables_number   1
_chemical_formula_structural   AlNiN2
_chemical_formula_sum   'Al4 Ni4 N8'
_cell_volume   134.93700193
_cell_formula_units_Z   4
loop_
 _symmetry_equiv_pos_site_id
 _symmetry_equiv_pos_as_xyz
  1  'x, y, z'
loop_
 _atom_site_type_symbol
 _atom_site_label
 _atom_site_symmetry_multiplicity
 _atom_site_fract_x
 _atom_site_fract_y
 _atom_site_fract_z
 _atom_site_occupancy
  Al  Al0  1  0.11961736  0.87000241  0.50000000  1
  Al  Al1  1  0.00144859  0.49198996  0.00000000  1
  Al  Al2  1  0.25010341  0.25334673  0.00000000  1
  Al  Al3  1  0.49944391  0.00628494  0.00000000  1
  N  N4  1  0.12621929  0.37498876  0.50000000  1
  N  N5  1  0.00507043  0.99334352  0.00000000  1
  N  N6  1  0.37673571  0.13022418  0.50000000  1
  N  N7  1  0.24461509  0.75549149  0.00000000  1
  N  N8  1  0.62544165  0.87775122  0.50000000  1
  N  N9  1  0.49589313  0.50860564  0.00000000  1
  N  N10  1  0.87175661  0.62008672  0.50000000  1
  N  N11  1  0.75670007  0.24118258  0.00000000  1
  Ni  Ni12  1  0.87452020  0.11848580  0.50000000  1
  Ni  Ni13  1  0.74500150  0.74879733  0.00000000  1
  Ni  Ni14  1  0.38052118  0.62824820  0.50000000  1
  Ni  Ni15  1  0.62691188  0.38117050  0.50000000  1
