# generated using pymatgen
data_AlCoN2
_symmetry_space_group_name_H-M   'P 1'
_cell_length_a   6.99265760
_cell_length_b   7.04269920
_cell_length_c   2.87658743
_cell_angle_alpha   90.00000000
_cell_angle_beta   90.00000000
_cell_angle_gamma   110.42746792
_symmetry_Int_Tables_number   1
_chemical_formula_structural   AlCoN2
_chemical_formula_sum   'Al4 Co4 N8'
_cell_volume   132.75526871
_cell_formula_units_Z   4
loop_
 _symmetry_equiv_pos_site_id
 _symmetry_equiv_pos_as_xyz
  1  'x, y, z'
loop_
 _atom_site_type_symbol
 _atom_site_label
 _atom_site_symmetry_multiplicity
 _atom_site_fract_x
 _atom_site_fract_y
 _atom_site_fract_z
 _atom_site_occupancy
  Al  Al0  1  0.10786049  0.87758926  0.50000000  1
  Al  Al1  1  0.99604743  0.49163923  0.00000000  1
  Al  Al2  1  0.24811326  0.25610361  0.00000000  1
  Al  Al3  1  0.49911761  0.01204655  0.00000000  1
  N  N4  1  0.13002159  0.37675119  0.50000000  1
  N  N5  1  0.00224910  0.99835537  0.00000000  1
  N  N6  1  0.37414638  0.12287331  0.50000000  1
  N  N7  1  0.25806660  0.75248383  0.00000000  1
  N  N8  1  0.63368516  0.86441631  0.50000000  1
  N  N9  1  0.51256294  0.49108909  0.00000000  1
  N  N10  1  0.88454755  0.62077101  0.50000000  1
  N  N11  1  0.75407130  0.23786636  0.00000000  1
  Co  Co12  1  0.86730159  0.12242657  0.50000000  1
  Co  Co13  1  0.73628981  0.74616130  0.00000000  1
  Co  Co14  1  0.37528278  0.64662538  0.50000000  1
  Co  Co15  1  0.62063642  0.38280164  0.50000000  1
