# generated using pymatgen
data_AlFeN2
_symmetry_space_group_name_H-M   'P 1'
_cell_length_a   6.94987260
_cell_length_b   7.03856681
_cell_length_c   2.88148635
_cell_angle_alpha   90.00000000
_cell_angle_beta   90.00000000
_cell_angle_gamma   109.80959445
_symmetry_Int_Tables_number   1
_chemical_formula_structural   AlFeN2
_chemical_formula_sum   'Al4 Fe4 N8'
_cell_volume   132.61298476
_cell_formula_units_Z   4
loop_
 _symmetry_equiv_pos_site_id
 _symmetry_equiv_pos_as_xyz
  1  'x, y, z'
loop_
 _atom_site_type_symbol
 _atom_site_label
 _atom_site_symmetry_multiplicity
 _atom_site_fract_x
 _atom_site_fract_y
 _atom_site_fract_z
 _atom_site_occupancy
  Al  Al0  1  0.11920230  0.87617360  0.50000000  1
  Al  Al1  1  0.00720444  0.48913665  0.00000000  1
  Al  Al2  1  0.24904281  0.25290855  0.00000000  1
  Al  Al3  1  0.50138762  0.01327800  0.00000000  1
  N  N4  1  0.12640024  0.37645540  0.50000000  1
  N  N5  1  0.99188511  0.99698056  0.00000000  1
  N  N6  1  0.37178860  0.12038877  0.50000000  1
  N  N7  1  0.25131477  0.75090430  0.00000000  1
  N  N8  1  0.64086675  0.87098967  0.50000000  1
  N  N9  1  0.48616924  0.48912326  0.00000000  1
  N  N10  1  0.87745806  0.62916914  0.50000000  1
  N  N11  1  0.74279063  0.25942221  0.00000000  1
  Fe  Fe12  1  0.87187098  0.11337186  0.50000000  1
  Fe  Fe13  1  0.72606259  0.71804435  0.00000000  1
  Fe  Fe14  1  0.39245933  0.65049362  0.50000000  1
  Fe  Fe15  1  0.64409653  0.39316006  0.50000000  1
