# generated using pymatgen
data_AlCrN2
_symmetry_space_group_name_H-M   'P 1'
_cell_length_a   7.21698765
_cell_length_b   7.06721765
_cell_length_c   2.78781864
_cell_angle_alpha   90.00000000
_cell_angle_beta   90.00000000
_cell_angle_gamma   105.86827337
_symmetry_Int_Tables_number   1
_chemical_formula_structural   AlCrN2
_chemical_formula_sum   'Al4 Cr4 N8'
_cell_volume   136.77151220
_cell_formula_units_Z   4
loop_
 _symmetry_equiv_pos_site_id
 _symmetry_equiv_pos_as_xyz
  1  'x, y, z'
loop_
 _atom_site_type_symbol
 _atom_site_label
 _atom_site_symmetry_multiplicity
 _atom_site_fract_x
 _atom_site_fract_y
 _atom_site_fract_z
 _atom_site_occupancy
  Al  Al0  1  0.13766773  0.86288690  0.50000000  1
  Al  Al1  1  0.00873905  0.48748791  0.00000000  1
  Al  Al2  1  0.23564378  0.24125685  0.00000000  1
  Al  Al3  1  0.50629183  0.03705705  0.00000000  1
  N  N4  1  0.09635765  0.34275551  0.50000000  1
  N  N5  1  0.00002500  0.98637350  0.00000000  1
  N  N6  1  0.35401531  0.10738819  0.50000000  1
  N  N7  1  0.24903597  0.72860018  0.00000000  1
  N  N8  1  0.61741698  0.88956307  0.50000000  1
  N  N9  1  0.45995145  0.46953419  0.00000000  1
  N  N10  1  0.89370245  0.63202359  0.50000000  1
  N  N11  1  0.73949518  0.26444003  0.00000000  1
  Cr  Cr12  1  0.86164091  0.10159576  0.50000000  1
  Cr  Cr13  1  0.76525155  0.76085927  0.00000000  1
  Cr  Cr14  1  0.42970908  0.65276268  0.50000000  1
  Cr  Cr15  1  0.64505608  0.43541530  0.50000000  1
