# generated using pymatgen
data_AlVN2
_symmetry_space_group_name_H-M   'P 1'
_cell_length_a   7.15818708
_cell_length_b   7.13597549
_cell_length_c   2.85897751
_cell_angle_alpha   90.00000000
_cell_angle_beta   90.00000000
_cell_angle_gamma   109.03496198
_symmetry_Int_Tables_number   1
_chemical_formula_structural   AlVN2
_chemical_formula_sum   'Al4 V4 N8'
_cell_volume   138.05300334
_cell_formula_units_Z   4
loop_
 _symmetry_equiv_pos_site_id
 _symmetry_equiv_pos_as_xyz
  1  'x, y, z'
loop_
 _atom_site_type_symbol
 _atom_site_label
 _atom_site_symmetry_multiplicity
 _atom_site_fract_x
 _atom_site_fract_y
 _atom_site_fract_z
 _atom_site_occupancy
  Al  Al0  1  0.12358573  0.87023733  0.50000000  1
  Al  Al1  1  0.01312540  0.50040325  0.00000000  1
  Al  Al2  1  0.24135539  0.24473086  0.00000000  1
  Al  Al3  1  0.48861333  0.00819387  0.00000000  1
  N  N4  1  0.12591245  0.37251190  0.50000000  1
  N  N5  1  0.00529559  0.99514150  0.00000000  1
  N  N6  1  0.36803056  0.12207341  0.50000000  1
  N  N7  1  0.25095394  0.75249940  0.00000000  1
  N  N8  1  0.61353209  0.88720394  0.50000000  1
  N  N9  1  0.49093212  0.48647345  0.00000000  1
  N  N10  1  0.89075751  0.62484981  0.50000000  1
  N  N11  1  0.74969015  0.25455509  0.00000000  1
  V  V12  1  0.85920870  0.11117225  0.50000000  1
  V  V13  1  0.73799195  0.74407093  0.00000000  1
  V  V14  1  0.40471552  0.63334431  0.50000000  1
  V  V15  1  0.63629954  0.39253869  0.50000000  1
