# generated using pymatgen
data_TiAlN2
_symmetry_space_group_name_H-M   'P 1'
_cell_length_a   7.28861879
_cell_length_b   7.23496783
_cell_length_c   2.92965976
_cell_angle_alpha   90.00000000
_cell_angle_beta   90.00000000
_cell_angle_gamma   109.16904590
_symmetry_Int_Tables_number   1
_chemical_formula_structural   TiAlN2
_chemical_formula_sum   'Ti4 Al4 N8'
_cell_volume   145.92367998
_cell_formula_units_Z   4
loop_
 _symmetry_equiv_pos_site_id
 _symmetry_equiv_pos_as_xyz
  1  'x, y, z'
loop_
 _atom_site_type_symbol
 _atom_site_label
 _atom_site_symmetry_multiplicity
 _atom_site_fract_x
 _atom_site_fract_y
 _atom_site_fract_z
 _atom_site_occupancy
  Al  Al0  1  0.12609068  0.87201762  0.50000000  1
  Al  Al1  1  0.00989126  0.50144165  0.00000000  1
  Al  Al2  1  0.24466824  0.24530427  0.00000000  1
  Al  Al3  1  0.48941646  0.00506469  0.00000000  1
  N  N4  1  0.12385701  0.37321265  0.50000000  1
  N  N5  1  0.01267766  0.99812443  0.00000000  1
  N  N6  1  0.36912999  0.12012925  0.50000000  1
  N  N7  1  0.24672310  0.75465828  0.00000000  1
  N  N8  1  0.61501095  0.88803692  0.50000000  1
  N  N9  1  0.48771282  0.48651901  0.00000000  1
  N  N10  1  0.89233508  0.62478176  0.50000000  1
  N  N11  1  0.75049363  0.25146245  0.00000000  1
  Ti  Ti12  1  0.86549295  0.11230386  0.50000000  1
  Ti  Ti13  1  0.74351056  0.74774102  0.00000000  1
  Ti  Ti14  1  0.38992543  0.62990612  0.50000000  1
  Ti  Ti15  1  0.63306416  0.38929599  0.50000000  1
