# generated using pymatgen
data_AlSiN2
_symmetry_space_group_name_H-M   'P 1'
_cell_length_a   8.74187427
_cell_length_b   9.38132480
_cell_length_c   2.97847948
_cell_angle_alpha   90.00000000
_cell_angle_beta   90.00000000
_cell_angle_gamma   136.60575111
_symmetry_Int_Tables_number   1
_chemical_formula_structural   AlSiN2
_chemical_formula_sum   'Al4 Si4 N8'
_cell_volume   167.81442637
_cell_formula_units_Z   4
loop_
 _symmetry_equiv_pos_site_id
 _symmetry_equiv_pos_as_xyz
  1  'x, y, z'
loop_
 _atom_site_type_symbol
 _atom_site_label
 _atom_site_symmetry_multiplicity
 _atom_site_fract_x
 _atom_site_fract_y
 _atom_site_fract_z
 _atom_site_occupancy
  Al  Al0  1  0.13427929  0.85261805  0.50000000  1
  Al  Al1  1  0.06021270  0.50952472  0.00000000  1
  Al  Al2  1  0.28064968  0.23787472  0.00000000  1
  Al  Al3  1  0.52807403  0.96086961  0.00000000  1
  N  N4  1  0.15268698  0.48150872  0.50000000  1
  N  N5  1  0.99790565  0.12275389  0.00000000  1
  N  N6  1  0.35142820  0.16972180  0.50000000  1
  N  N7  1  0.22551108  0.80107918  0.00000000  1
  N  N8  1  0.59458295  0.88690393  0.50000000  1
  N  N9  1  0.47740886  0.54157263  0.00000000  1
  N  N10  1  0.78638476  0.57104454  0.50000000  1
  N  N11  1  0.70605746  0.26192490  0.00000000  1
  Si  Si12  1  0.86298179  0.97814444  0.50000000  1
  Si  Si13  1  0.79058491  0.70236176  0.00000000  1
  Si  Si14  1  0.41844495  0.60894250  0.50000000  1
  Si  Si15  1  0.63280671  0.31315460  0.50000000  1
