# generated using pymatgen
data_AlN
_symmetry_space_group_name_H-M   'P 1'
_cell_length_a   7.04329537
_cell_length_b   7.04329570
_cell_length_c   2.87620196
_cell_angle_alpha   90.00000000
_cell_angle_beta   90.00000000
_cell_angle_gamma   109.44399462
_symmetry_Int_Tables_number   1
_chemical_formula_structural   AlN
_chemical_formula_sum   'Al8 N8'
_cell_volume   134.54508818
_cell_formula_units_Z   8
loop_
 _symmetry_equiv_pos_site_id
 _symmetry_equiv_pos_as_xyz
  1  'x, y, z'
loop_
 _atom_site_type_symbol
 _atom_site_label
 _atom_site_symmetry_multiplicity
 _atom_site_fract_x
 _atom_site_fract_y
 _atom_site_fract_z
 _atom_site_occupancy
  Al  Al0  1  0.12498924  0.87501095  0.50000000  1
  Al  Al1  1  0.00000054  0.50000031  0.00000000  1
  Al  Al2  1  0.24999989  0.24999995  0.00000000  1
  Al  Al3  1  0.49999943  0.99999971  0.00000000  1
  Al  Al4  1  0.87501151  0.12498893  0.50000000  1
  Al  Al5  1  0.75000015  0.75000001  0.00000000  1
  Al  Al6  1  0.37501059  0.62498896  0.50000000  1
  Al  Al7  1  0.62498864  0.37501118  0.50000000  1
  N  N8  1  0.12499705  0.37500249  0.50000000  1
  N  N9  1  0.99999968  0.00000005  0.00000000  1
  N  N10  1  0.37500301  0.12499749  0.50000000  1
  N  N11  1  0.25000007  0.75000000  0.00000000  1
  N  N12  1  0.62499760  0.87500288  0.50000000  1
  N  N13  1  0.50000029  0.49999998  0.00000000  1
  N  N14  1  0.87500234  0.62499714  0.50000000  1
  N  N15  1  0.74999996  0.24999998  0.00000000  1
