# generated using pymatgen
data_AlBN2
_symmetry_space_group_name_H-M   'P 1'
_cell_length_a   7.35952149
_cell_length_b   8.57185700
_cell_length_c   2.78556950
_cell_angle_alpha   90.00000000
_cell_angle_beta   90.00000000
_cell_angle_gamma   126.24605762
_symmetry_Int_Tables_number   1
_chemical_formula_structural   AlBN2
_chemical_formula_sum   'Al4 B4 N8'
_cell_volume   141.72124000
_cell_formula_units_Z   4
loop_
 _symmetry_equiv_pos_site_id
 _symmetry_equiv_pos_as_xyz
  1  'x, y, z'
loop_
 _atom_site_type_symbol
 _atom_site_label
 _atom_site_symmetry_multiplicity
 _atom_site_fract_x
 _atom_site_fract_y
 _atom_site_fract_z
 _atom_site_occupancy
  Al  Al0  1  0.00665597  0.80901295  0.50000000  1
  Al  Al1  1  0.95354687  0.51218439  0.00000000  1
  Al  Al2  1  0.13852211  0.20738731  0.00000000  1
  Al  Al3  1  0.45501646  0.96473705  0.00000000  1
  N  N4  1  0.35516429  0.33344623  0.50000000  1
  N  N5  1  0.95183559  0.93695250  0.00000000  1
  N  N6  1  0.55087834  0.15728328  0.50000000  1
  N  N7  1  0.16301150  0.77286328  0.00000000  1
  N  N8  1  0.65998119  0.94958444  0.50000000  1
  N  N9  1  0.52867631  0.64457369  0.00000000  1
  N  N10  1  0.78252955  0.51201455  0.50000000  1
  N  N11  1  0.92905495  0.27599162  0.00000000  1
  B  B12  1  0.78080215  0.17411754  0.50000000  1
  B  B13  1  0.70715928  0.86617929  0.00000000  1
  B  B14  1  0.47656793  0.55244418  0.50000000  1
  B  B15  1  0.56059753  0.33122771  0.50000000  1
