# generated using pymatgen
data_AlOs3N4
_symmetry_space_group_name_H-M   'P 1'
_cell_length_a   5.82415327
_cell_length_b   6.52659048
_cell_length_c   9.26607163
_cell_angle_alpha   82.62007469
_cell_angle_beta   88.20110857
_cell_angle_gamma   77.94880053
_symmetry_Int_Tables_number   1
_chemical_formula_structural   AlOs3N4
_chemical_formula_sum   'Al4 Os12 N16'
_cell_volume   341.60099427
_cell_formula_units_Z   4
loop_
 _symmetry_equiv_pos_site_id
 _symmetry_equiv_pos_as_xyz
  1  'x, y, z'
loop_
 _atom_site_type_symbol
 _atom_site_label
 _atom_site_symmetry_multiplicity
 _atom_site_fract_x
 _atom_site_fract_y
 _atom_site_fract_z
 _atom_site_occupancy
  Os  Os0  1  0.08332251  0.59554205  0.91303838  1
  Os  Os1  1  0.59553098  0.65458456  0.90779590  1
  Os  Os2  1  0.01755245  0.39501757  0.70485892  1
  Os  Os3  1  0.51019467  0.39990596  0.73082354  1
  Os  Os4  1  0.34490434  0.03506598  0.78802908  1
  Os  Os5  1  0.18599472  0.76474776  0.53285516  1
  Os  Os6  1  0.96195150  0.70248782  0.27136018  1
  Os  Os7  1  0.43081968  0.70561735  0.28331599  1
  Os  Os8  1  0.81371043  0.28863339  0.15380951  1
  Os  Os9  1  0.36243762  0.31049898  0.15389845  1
  Os  Os10  1  0.17959297  0.98656753  0.07961870  1
  Os  Os11  1  0.64117390  0.96499063  0.11466732  1
  Al  Al12  1  0.85570189  0.02054913  0.75108814  1
  Al  Al13  1  0.68659792  0.77460807  0.54772768  1
  Al  Al14  1  0.33139108  0.20806442  0.45988933  1
  Al  Al15  1  0.83352367  0.22907185  0.45330271  1
  N  N16  1  0.59626320  0.35050683  0.97320306  1
  N  N17  1  0.09354894  0.29687806  0.01832152  1
  N  N18  1  0.58469439  0.11809946  0.62663698  1
  N  N19  1  0.09015205  0.10705771  0.60381212  1
  N  N20  1  0.95383126  0.71955577  0.70563971  1
  N  N21  1  0.45196207  0.74015585  0.69496372  1
  N  N22  1  0.75135082  0.46929133  0.56190070  1
  N  N23  1  0.27392546  0.45276030  0.56394698  1
  N  N24  1  0.56278851  0.36386317  0.31783652  1
  N  N25  1  0.06565061  0.35117352  0.30686617  1
  N  N26  1  0.63648449  0.95771886  0.90398265  1
  N  N27  1  0.08271988  0.91676258  0.89369527  1
  N  N28  1  0.90353657  0.90608388  0.41550026  1
  N  N29  1  0.41959908  0.91257930  0.41782146  1
  N  N30  1  0.84334582  0.62746639  0.07753812  1
  N  N31  1  0.35574650  0.67409393  0.07225576  1
