# generated using pymatgen
data_AlRe3N4
_symmetry_space_group_name_H-M   'P 1'
_cell_length_a   5.89838476
_cell_length_b   6.61590015
_cell_length_c   9.71785910
_cell_angle_alpha   82.52358826
_cell_angle_beta   68.71746577
_cell_angle_gamma   77.70858748
_symmetry_Int_Tables_number   1
_chemical_formula_structural   AlRe3N4
_chemical_formula_sum   'Al4 Re12 N16'
_cell_volume   344.67703910
_cell_formula_units_Z   4
loop_
 _symmetry_equiv_pos_site_id
 _symmetry_equiv_pos_as_xyz
  1  'x, y, z'
loop_
 _atom_site_type_symbol
 _atom_site_label
 _atom_site_symmetry_multiplicity
 _atom_site_fract_x
 _atom_site_fract_y
 _atom_site_fract_z
 _atom_site_occupancy
  Re  Re0  1  0.11195985  0.62773829  0.90523815  1
  Re  Re1  1  0.56821502  0.62264358  0.89948322  1
  Re  Re2  1  0.98115516  0.42113834  0.73156127  1
  Re  Re3  1  0.51651489  0.44072990  0.68837792  1
  Re  Re4  1  0.27743444  0.09850731  0.81024221  1
  Re  Re5  1  0.19327130  0.75384150  0.51632535  1
  Re  Re6  1  0.05067944  0.62033491  0.31448841  1
  Re  Re7  1  0.62703984  0.64945348  0.29262990  1
  Re  Re8  1  0.81787938  0.27166608  0.10354837  1
  Re  Re9  1  0.32149148  0.28769164  0.12803682  1
  Re  Re10  1  0.15576976  0.93798080  0.14382776  1
  Re  Re11  1  0.62735326  0.96188268  0.10066144  1
  Al  Al12  1  0.79648076  0.03495121  0.76594647  1
  Al  Al13  1  0.65731579  0.84572105  0.54432172  1
  Al  Al14  1  0.35116504  0.20892529  0.45412489  1
  Al  Al15  1  0.85039813  0.20747668  0.42653128  1
  N  N16  1  0.67185829  0.30165270  0.84993773  1
  N  N17  1  0.16777682  0.31862109  0.97016867  1
  N  N18  1  0.62292015  0.11711992  0.62378627  1
  N  N19  1  0.10870046  0.11891371  0.65394967  1
  N  N20  1  0.90594684  0.73719607  0.75984084  1
  N  N21  1  0.40383059  0.75827110  0.74304386  1
  N  N22  1  0.73272409  0.56750686  0.48284583  1
  N  N23  1  0.28717838  0.45847211  0.55908899  1
  N  N24  1  0.64440076  0.31978674  0.31741262  1
  N  N25  1  0.14399008  0.30865184  0.34357548  1
  N  N26  1  0.48540719  0.93451397  0.94202414  1
  N  N27  1  0.98818705  0.00049072  0.98582172  1
  N  N28  1  0.98791122  0.91460610  0.38536689  1
  N  N29  1  0.46507354  0.91420726  0.41486881  1
  N  N30  1  0.74855928  0.60878172  0.06149804  1
  N  N31  1  0.23141172  0.63052536  0.08142527  1
