# generated using pymatgen
data_AlW3N4
_symmetry_space_group_name_H-M   'P 1'
_cell_length_a   6.25906457
_cell_length_b   6.58014310
_cell_length_c   8.52837220
_cell_angle_alpha   84.17761825
_cell_angle_beta   72.18712108
_cell_angle_gamma   76.28245625
_symmetry_Int_Tables_number   1
_chemical_formula_structural   AlW3N4
_chemical_formula_sum   'Al4 W12 N16'
_cell_volume   324.71002810
_cell_formula_units_Z   4
loop_
 _symmetry_equiv_pos_site_id
 _symmetry_equiv_pos_as_xyz
  1  'x, y, z'
loop_
 _atom_site_type_symbol
 _atom_site_label
 _atom_site_symmetry_multiplicity
 _atom_site_fract_x
 _atom_site_fract_y
 _atom_site_fract_z
 _atom_site_occupancy
  W  W0  1  0.08564129  0.69570216  0.91199482  1
  W  W1  1  0.63580762  0.65036463  0.97300797  1
  W  W2  1  0.96782844  0.43603363  0.70868218  1
  W  W3  1  0.42124479  0.45566391  0.68615409  1
  W  W4  1  0.22977019  0.08140499  0.82385035  1
  W  W5  1  0.17242019  0.78954393  0.56880442  1
  W  W6  1  0.06970759  0.57631408  0.29907931  1
  W  W7  1  0.50710496  0.58360631  0.31925826  1
  W  W8  1  0.92801389  0.28609472  0.06879113  1
  W  W9  1  0.45546679  0.30982150  0.08634044  1
  W  W10  1  0.21666595  0.92255209  0.16465945  1
  W  W11  1  0.77786863  0.92738468  0.20213203  1
  Al  Al12  1  0.73363580  0.06706230  0.79349062  1
  Al  Al13  1  0.66540171  0.81083773  0.56758775  1
  Al  Al14  1  0.37225883  0.16796681  0.45651674  1
  Al  Al15  1  0.86074901  0.19786950  0.44840159  1
  N  N16  1  0.64107619  0.39200566  0.83813920  1
  N  N17  1  0.24159525  0.35388674  0.92871219  1
  N  N18  1  0.56399243  0.13251948  0.62182821  1
  N  N19  1  0.05361270  0.12538473  0.61705679  1
  N  N20  1  0.83726351  0.76976689  0.72989689  1
  N  N21  1  0.37207705  0.77499705  0.72936744  1
  N  N22  1  0.75735995  0.50056865  0.50290242  1
  N  N23  1  0.23571817  0.46465917  0.48877685  1
  N  N24  1  0.64516846  0.24965027  0.28275404  1
  N  N25  1  0.13037056  0.24350934  0.25890809  1
  N  N26  1  0.47397358  0.99496001  0.96392233  1
  N  N27  1  0.89790227  0.02428186  0.95092328  1
  N  N28  1  0.94529905  0.89032551  0.39813684  1
  N  N29  1  0.48904704  0.87979796  0.40928746  1
  N  N30  1  0.82823296  0.61284675  0.13909984  1
  N  N31  1  0.28772515  0.63261699  0.06153700  1
