# generated using pymatgen
data_Ta3AlN4
_symmetry_space_group_name_H-M   'P 1'
_cell_length_a   6.08320333
_cell_length_b   6.87319327
_cell_length_c   8.22592625
_cell_angle_alpha   84.97282978
_cell_angle_beta   79.10600308
_cell_angle_gamma   77.24535350
_symmetry_Int_Tables_number   1
_chemical_formula_structural   Ta3AlN4
_chemical_formula_sum   'Ta12 Al4 N16'
_cell_volume   329.02386804
_cell_formula_units_Z   4
loop_
 _symmetry_equiv_pos_site_id
 _symmetry_equiv_pos_as_xyz
  1  'x, y, z'
loop_
 _atom_site_type_symbol
 _atom_site_label
 _atom_site_symmetry_multiplicity
 _atom_site_fract_x
 _atom_site_fract_y
 _atom_site_fract_z
 _atom_site_occupancy
  Ta  Ta0  1  0.08239480  0.68582231  0.92085841  1
  Ta  Ta1  1  0.61840069  0.67045828  0.93151677  1
  Ta  Ta2  1  0.96506998  0.44895309  0.69573376  1
  Ta  Ta3  1  0.45772179  0.45028493  0.68792852  1
  Ta  Ta4  1  0.27176755  0.07000640  0.82672041  1
  Ta  Ta5  1  0.16368144  0.79097172  0.56062824  1
  Ta  Ta6  1  0.05289228  0.56433237  0.31426831  1
  Ta  Ta7  1  0.51114034  0.57473649  0.31802572  1
  Ta  Ta8  1  0.89271867  0.30276006  0.06579315  1
  Ta  Ta9  1  0.42425183  0.30497158  0.07412516  1
  Ta  Ta10  1  0.22945587  0.94252091  0.17973233  1
  Ta  Ta11  1  0.70322734  0.94524256  0.18208153  1
  Al  Al12  1  0.77884340  0.06211441  0.79077117  1
  Al  Al13  1  0.65582334  0.82858779  0.55836930  1
  Al  Al14  1  0.34550945  0.17762035  0.44789477  1
  Al  Al15  1  0.84665531  0.18027524  0.44245159  1
  N  N16  1  0.69328004  0.34012039  0.86031924  1
  N  N17  1  0.19153168  0.37139327  0.89060951  1
  N  N18  1  0.56821850  0.12421250  0.61904276  1
  N  N19  1  0.05189114  0.12472706  0.62038193  1
  N  N20  1  0.85127534  0.77988233  0.72940965  1
  N  N21  1  0.39363422  0.76449456  0.74068177  1
  N  N22  1  0.74727916  0.51773977  0.50150239  1
  N  N23  1  0.25633879  0.45891208  0.50291779  1
  N  N24  1  0.62554998  0.24843381  0.28570745  1
  N  N25  1  0.11800306  0.24668621  0.27582673  1
  N  N26  1  0.52628245  0.99546269  0.97365966  1
  N  N27  1  0.98194936  0.99520873  0.98563136  1
  N  N28  1  0.92363481  0.88937997  0.38170929  1
  N  N29  1  0.44224246  0.89478811  0.39369485  1
  N  N30  1  0.81855163  0.62196177  0.13503585  1
  N  N31  1  0.31078324  0.62693824  0.10697064  1
