# generated using pymatgen
data_Hf3AlN4
_symmetry_space_group_name_H-M   'P 1'
_cell_length_a   6.27673434
_cell_length_b   7.03918446
_cell_length_c   8.33049799
_cell_angle_alpha   85.21176283
_cell_angle_beta   79.26463058
_cell_angle_gamma   77.24277531
_symmetry_Int_Tables_number   1
_chemical_formula_structural   Hf3AlN4
_chemical_formula_sum   'Hf12 Al4 N16'
_cell_volume   352.35386841
_cell_formula_units_Z   4
loop_
 _symmetry_equiv_pos_site_id
 _symmetry_equiv_pos_as_xyz
  1  'x, y, z'
loop_
 _atom_site_type_symbol
 _atom_site_label
 _atom_site_symmetry_multiplicity
 _atom_site_fract_x
 _atom_site_fract_y
 _atom_site_fract_z
 _atom_site_occupancy
  Hf  Hf0  1  0.09586285  0.68528968  0.93658984  1
  Hf  Hf1  1  0.59113367  0.68947225  0.93775208  1
  Hf  Hf2  1  0.96949337  0.43809959  0.68693135  1
  Hf  Hf3  1  0.46664097  0.44049291  0.68804767  1
  Hf  Hf4  1  0.27950358  0.06001566  0.81348851  1
  Hf  Hf5  1  0.15825568  0.81096435  0.55941095  1
  Hf  Hf6  1  0.03339992  0.56273394  0.31368318  1
  Hf  Hf7  1  0.52831352  0.56324387  0.31514954  1
  Hf  Hf8  1  0.90767792  0.31440811  0.06269356  1
  Hf  Hf9  1  0.40372431  0.31308186  0.06149760  1
  Hf  Hf10  1  0.21933203  0.93443559  0.18783644  1
  Hf  Hf11  1  0.71948241  0.93559349  0.18688497  1
  Al  Al12  1  0.78093181  0.06086318  0.80555432  1
  Al  Al13  1  0.65568910  0.83142593  0.56261610  1
  Al  Al14  1  0.35033614  0.18480812  0.43485992  1
  Al  Al15  1  0.84473295  0.17536107  0.44284963  1
  N  N16  1  0.69404756  0.35193133  0.87087680  1
  N  N17  1  0.18784497  0.37019779  0.87343307  1
  N  N18  1  0.57711768  0.11881093  0.61589626  1
  N  N19  1  0.04673892  0.12818190  0.61905293  1
  N  N20  1  0.85800350  0.77280859  0.74280394  1
  N  N21  1  0.39270546  0.75479723  0.73678067  1
  N  N22  1  0.74829782  0.50679090  0.50113808  1
  N  N23  1  0.25740117  0.47481139  0.49663320  1
  N  N24  1  0.62425134  0.24466483  0.27000384  1
  N  N25  1  0.11958396  0.23950496  0.27325767  1
  N  N26  1  0.51531822  0.00515632  0.98700544  1
  N  N27  1  0.98744334  0.00427613  0.98702612  1
  N  N28  1  0.91797757  0.88679337  0.38834181  1
  N  N29  1  0.44333426  0.89297886  0.38997371  1
  N  N30  1  0.81205726  0.62503837  0.12624592  1
  N  N31  1  0.31336672  0.62296750  0.12568488  1
