# generated using pymatgen
data_AlMo3N4
_symmetry_space_group_name_H-M   'P 1'
_cell_length_a   5.94410825
_cell_length_b   6.70595894
_cell_length_c   8.23243410
_cell_angle_alpha   85.07097198
_cell_angle_beta   80.17214408
_cell_angle_gamma   78.28284394
_symmetry_Int_Tables_number   1
_chemical_formula_structural   AlMo3N4
_chemical_formula_sum   'Al4 Mo12 N16'
_cell_volume   316.15215789
_cell_formula_units_Z   4
loop_
 _symmetry_equiv_pos_site_id
 _symmetry_equiv_pos_as_xyz
  1  'x, y, z'
loop_
 _atom_site_type_symbol
 _atom_site_label
 _atom_site_symmetry_multiplicity
 _atom_site_fract_x
 _atom_site_fract_y
 _atom_site_fract_z
 _atom_site_occupancy
  Mo  Mo0  1  0.07072750  0.69224626  0.92231138  1
  Mo  Mo1  1  0.63147234  0.65411252  0.91774384  1
  Mo  Mo2  1  0.98151829  0.44382221  0.70704271  1
  Mo  Mo3  1  0.43190372  0.42978801  0.71669201  1
  Mo  Mo4  1  0.27482338  0.07315768  0.81411844  1
  Mo  Mo5  1  0.16841426  0.79444071  0.53082858  1
  Mo  Mo6  1  0.05065273  0.58031450  0.31148525  1
  Mo  Mo7  1  0.49025520  0.59236346  0.31384028  1
  Mo  Mo8  1  0.86258415  0.30312674  0.07917517  1
  Mo  Mo9  1  0.42594770  0.28333133  0.07597420  1
  Mo  Mo10  1  0.21598957  0.92291402  0.20777361  1
  Mo  Mo11  1  0.71056727  0.97086379  0.17508826  1
  Al  Al12  1  0.78771581  0.05432403  0.78064821  1
  Al  Al13  1  0.65584649  0.81189268  0.55813999  1
  Al  Al14  1  0.34064304  0.18396276  0.44995795  1
  Al  Al15  1  0.83427109  0.20944537  0.44811697  1
  N  N16  1  0.70828390  0.32369096  0.86319384  1
  N  N17  1  0.17876629  0.37190044  0.91766938  1
  N  N18  1  0.56908051  0.12499813  0.61662169  1
  N  N19  1  0.05920354  0.12440224  0.61245825  1
  N  N20  1  0.87035865  0.76809168  0.72368339  1
  N  N21  1  0.38801797  0.75653120  0.73550700  1
  N  N22  1  0.75449811  0.50880679  0.50389465  1
  N  N23  1  0.26310796  0.47106165  0.50355351  1
  N  N24  1  0.60890395  0.25939005  0.28310299  1
  N  N25  1  0.11504580  0.24940984  0.27057549  1
  N  N26  1  0.54501340  0.98357932  0.96335725  1
  N  N27  1  0.00143971  0.00360019  0.99470708  1
  N  N28  1  0.91154429  0.89768230  0.38189724  1
  N  N29  1  0.45419383  0.89683399  0.38700494  1
  N  N30  1  0.81131224  0.63450591  0.13258964  1
  N  N31  1  0.32789729  0.62540926  0.10124683  1
