# generated using pymatgen
data_Nb3AlN4
_symmetry_space_group_name_H-M   'P 1'
_cell_length_a   6.13185517
_cell_length_b   6.92954019
_cell_length_c   8.25698716
_cell_angle_alpha   85.14296873
_cell_angle_beta   79.07511023
_cell_angle_gamma   77.20730458
_symmetry_Int_Tables_number   1
_chemical_formula_structural   Nb3AlN4
_chemical_formula_sum   'Nb12 Al4 N16'
_cell_volume   335.60321122
_cell_formula_units_Z   4
loop_
 _symmetry_equiv_pos_site_id
 _symmetry_equiv_pos_as_xyz
  1  'x, y, z'
loop_
 _atom_site_type_symbol
 _atom_site_label
 _atom_site_symmetry_multiplicity
 _atom_site_fract_x
 _atom_site_fract_y
 _atom_site_fract_z
 _atom_site_occupancy
  Nb  Nb0  1  0.08099369  0.68520873  0.92176498  1
  Nb  Nb1  1  0.61857971  0.67368998  0.93100272  1
  Nb  Nb2  1  0.96322312  0.45029521  0.69700287  1
  Nb  Nb3  1  0.45789712  0.45129695  0.68631569  1
  Nb  Nb4  1  0.27187539  0.07065056  0.82909836  1
  Nb  Nb5  1  0.16465111  0.78961298  0.56142910  1
  Nb  Nb6  1  0.05332295  0.56069275  0.31414478  1
  Nb  Nb7  1  0.51038840  0.57331067  0.31990871  1
  Nb  Nb8  1  0.89338282  0.30447190  0.06493876  1
  Nb  Nb9  1  0.42426313  0.30817172  0.07472451  1
  Nb  Nb10  1  0.22947254  0.94211910  0.17841769  1
  Nb  Nb11  1  0.70361921  0.94258922  0.18045778  1
  Al  Al12  1  0.77980877  0.06487458  0.79020662  1
  Al  Al13  1  0.65716730  0.82668873  0.55791199  1
  Al  Al14  1  0.34433968  0.17660663  0.44926056  1
  Al  Al15  1  0.84814788  0.17472590  0.44077406  1
  N  N16  1  0.69203621  0.34540970  0.86205493  1
  N  N17  1  0.19168342  0.37256310  0.88818873  1
  N  N18  1  0.57069691  0.12215259  0.61758519  1
  N  N19  1  0.05081007  0.12571125  0.61995480  1
  N  N20  1  0.85326939  0.77976537  0.73138440  1
  N  N21  1  0.39145325  0.76300950  0.74114277  1
  N  N22  1  0.74601867  0.52097971  0.50262703  1
  N  N23  1  0.25433340  0.46155430  0.50370922  1
  N  N24  1  0.62616142  0.24576465  0.28256412  1
  N  N25  1  0.12030657  0.24398183  0.27441948  1
  N  N26  1  0.52314402  0.99932353  0.97693986  1
  N  N27  1  0.98238713  0.99738202  0.98604661  1
  N  N28  1  0.92600835  0.88567703  0.38088624  1
  N  N29  1  0.44155143  0.89278500  0.39116521  1
  N  N30  1  0.81651594  0.62115948  0.13401759  1
  N  N31  1  0.31249098  0.62777537  0.10995461  1
