# generated using pymatgen
data_Zr3AlN4
_symmetry_space_group_name_H-M   'P 1'
_cell_length_a   6.34708122
_cell_length_b   7.11826242
_cell_length_c   8.42392657
_cell_angle_alpha   85.20787296
_cell_angle_beta   79.33810051
_cell_angle_gamma   77.25745264
_symmetry_Int_Tables_number   1
_chemical_formula_structural   Zr3AlN4
_chemical_formula_sum   'Zr12 Al4 N16'
_cell_volume   364.44949274
_cell_formula_units_Z   4
loop_
 _symmetry_equiv_pos_site_id
 _symmetry_equiv_pos_as_xyz
  1  'x, y, z'
loop_
 _atom_site_type_symbol
 _atom_site_label
 _atom_site_symmetry_multiplicity
 _atom_site_fract_x
 _atom_site_fract_y
 _atom_site_fract_z
 _atom_site_occupancy
  Zr  Zr0  1  0.09484412  0.68619615  0.93685059  1
  Zr  Zr1  1  0.59094081  0.69022956  0.93724444  1
  Zr  Zr2  1  0.96840110  0.43645215  0.68615645  1
  Zr  Zr3  1  0.46751883  0.43982642  0.68742107  1
  Zr  Zr4  1  0.27933465  0.06020465  0.81234701  1
  Zr  Zr5  1  0.15786301  0.81248131  0.55979945  1
  Zr  Zr6  1  0.03307406  0.56209620  0.31462956  1
  Zr  Zr7  1  0.52930853  0.56359794  0.31595772  1
  Zr  Zr8  1  0.90736130  0.31377787  0.06316771  1
  Zr  Zr9  1  0.40382180  0.31290142  0.06132888  1
  Zr  Zr10  1  0.21957591  0.93594874  0.18819151  1
  Zr  Zr11  1  0.71951983  0.93613880  0.18655575  1
  Al  Al12  1  0.78071825  0.06036818  0.80421633  1
  Al  Al13  1  0.65685692  0.82842253  0.56209028  1
  Al  Al14  1  0.35691915  0.18462982  0.43272733  1
  Al  Al15  1  0.84689294  0.16695033  0.44249304  1
  N  N16  1  0.69380425  0.35141082  0.87061674  1
  N  N17  1  0.18720985  0.37099043  0.87317091  1
  N  N18  1  0.57969135  0.11656074  0.61355986  1
  N  N19  1  0.03973528  0.12786971  0.62007492  1
  N  N20  1  0.85719209  0.77384610  0.74218658  1
  N  N21  1  0.39175835  0.75399992  0.73715613  1
  N  N22  1  0.74492591  0.51846771  0.50346150  1
  N  N23  1  0.25821669  0.47324857  0.49675295  1
  N  N24  1  0.62535536  0.24438325  0.27280625  1
  N  N25  1  0.11880536  0.23884197  0.27644800  1
  N  N26  1  0.51654547  0.00544747  0.98512687  1
  N  N27  1  0.98731076  0.00461821  0.98569567  1
  N  N28  1  0.91812414  0.88621298  0.38812856  1
  N  N29  1  0.44340881  0.89504598  0.39117429  1
  N  N30  1  0.81196507  0.62526954  0.12633818  1
  N  N31  1  0.31300007  0.62356458  0.12612549  1
