# generated using pymatgen
data_Y3AlN4
_symmetry_space_group_name_H-M   'P 1'
_cell_length_a   6.80510953
_cell_length_b   7.67414165
_cell_length_c   8.90363682
_cell_angle_alpha   84.41617877
_cell_angle_beta   79.78606946
_cell_angle_gamma   76.32190206
_symmetry_Int_Tables_number   1
_chemical_formula_structural   Y3AlN4
_chemical_formula_sum   'Y12 Al4 N16'
_cell_volume   443.88521105
_cell_formula_units_Z   4
loop_
 _symmetry_equiv_pos_site_id
 _symmetry_equiv_pos_as_xyz
  1  'x, y, z'
loop_
 _atom_site_type_symbol
 _atom_site_label
 _atom_site_symmetry_multiplicity
 _atom_site_fract_x
 _atom_site_fract_y
 _atom_site_fract_z
 _atom_site_occupancy
  Y  Y0  1  0.10954383  0.68267866  0.93487201  1
  Y  Y1  1  0.60744494  0.69251986  0.92796716  1
  Y  Y2  1  0.95853290  0.42719239  0.68056875  1
  Y  Y3  1  0.48058082  0.42521826  0.67579630  1
  Y  Y4  1  0.29830360  0.06239563  0.80431646  1
  Y  Y5  1  0.12277813  0.82284452  0.56873882  1
  Y  Y6  1  0.04362270  0.54840941  0.32086984  1
  Y  Y7  1  0.53781376  0.56058712  0.31864347  1
  Y  Y8  1  0.91590926  0.31044979  0.06488848  1
  Y  Y9  1  0.42874409  0.31164139  0.05520695  1
  Y  Y10  1  0.21927912  0.94173842  0.19593961  1
  Y  Y11  1  0.73447779  0.92742715  0.18567668  1
  Al  Al12  1  0.81271773  0.02179669  0.83037567  1
  Al  Al13  1  0.58131377  0.81402653  0.55796945  1
  Al  Al14  1  0.39436881  0.15987046  0.39408638  1
  Al  Al15  1  0.79059991  0.11664756  0.46472038  1
  N  N16  1  0.69523720  0.39596766  0.88711491  1
  N  N17  1  0.20006078  0.36980202  0.87421942  1
  N  N18  1  0.52023604  0.10625090  0.58045417  1
  N  N19  1  0.93077281  0.13321088  0.63787146  1
  N  N20  1  0.88029314  0.76927777  0.76942732  1
  N  N21  1  0.37825785  0.76390008  0.73807361  1
  N  N22  1  0.72617211  0.56682590  0.51675197  1
  N  N23  1  0.24370149  0.52005620  0.51070710  1
  N  N24  1  0.64251478  0.23875293  0.27626272  1
  N  N25  1  0.18417595  0.24694571  0.25964683  1
  N  N26  1  0.53812614  0.01510682  0.97089161  1
  N  N27  1  0.00137764  0.00448205  0.98938623  1
  N  N28  1  0.94069434  0.89920679  0.36818518  1
  N  N29  1  0.44043967  0.88849230  0.37653388  1
  N  N30  1  0.82330499  0.62118221  0.13278235  1
  N  N31  1  0.31860393  0.63509593  0.13105480  1
