# generated using pymatgen
data_AlNi3N4
_symmetry_space_group_name_H-M   'P 1'
_cell_length_a   5.73625383
_cell_length_b   6.48313515
_cell_length_c   7.58443345
_cell_angle_alpha   84.79559308
_cell_angle_beta   79.18931432
_cell_angle_gamma   77.13579481
_symmetry_Int_Tables_number   1
_chemical_formula_structural   AlNi3N4
_chemical_formula_sum   'Al4 Ni12 N16'
_cell_volume   269.74398808
_cell_formula_units_Z   4
loop_
 _symmetry_equiv_pos_site_id
 _symmetry_equiv_pos_as_xyz
  1  'x, y, z'
loop_
 _atom_site_type_symbol
 _atom_site_label
 _atom_site_symmetry_multiplicity
 _atom_site_fract_x
 _atom_site_fract_y
 _atom_site_fract_z
 _atom_site_occupancy
  Ni  Ni0  1  0.09686013  0.68670318  0.93273892  1
  Ni  Ni1  1  0.59508438  0.67377761  0.93941604  1
  Ni  Ni2  1  0.97279560  0.44228718  0.69262668  1
  Ni  Ni3  1  0.46464740  0.43588893  0.69034461  1
  Ni  Ni4  1  0.27974647  0.06355062  0.81481175  1
  Ni  Ni5  1  0.15961635  0.80285255  0.56057603  1
  Ni  Ni6  1  0.03262008  0.57259860  0.30971635  1
  Ni  Ni7  1  0.52592920  0.56845202  0.30749367  1
  Ni  Ni8  1  0.90617099  0.31196163  0.06632682  1
  Ni  Ni9  1  0.40224462  0.31720462  0.06899811  1
  Ni  Ni10  1  0.22140192  0.93498219  0.18269007  1
  Ni  Ni11  1  0.71863784  0.94096722  0.18384070  1
  Al  Al12  1  0.78181144  0.06052976  0.80948700  1
  Al  Al13  1  0.65852321  0.80406658  0.55903718  1
  Al  Al14  1  0.34027398  0.18633824  0.44197518  1
  Al  Al15  1  0.84207803  0.19907114  0.43639609  1
  N  N16  1  0.68495828  0.35442949  0.88854228  1
  N  N17  1  0.18817684  0.36041065  0.88951519  1
  N  N18  1  0.56414625  0.11909554  0.62293933  1
  N  N19  1  0.06063986  0.12530124  0.62535190  1
  N  N20  1  0.87256230  0.75026814  0.74876974  1
  N  N21  1  0.38386626  0.73429205  0.74138406  1
  N  N22  1  0.74833158  0.50281759  0.50100393  1
  N  N23  1  0.25124107  0.49951165  0.50220286  1
  N  N24  1  0.61787303  0.25941135  0.25718418  1
  N  N25  1  0.11913556  0.27084041  0.25799903  1
  N  N26  1  0.50223049  0.97450704  0.99132949  1
  N  N27  1  0.00750087  0.00602066  0.99942781  1
  N  N28  1  0.93355307  0.88940374  0.37138334  1
  N  N29  1  0.43855039  0.87863235  0.36908577  1
  N  N30  1  0.82385691  0.64595374  0.12086444  1
  N  N31  1  0.30493563  0.62787227  0.11654144  1
