# generated using pymatgen
data_AlCo3N4
_symmetry_space_group_name_H-M   'P 1'
_cell_length_a   5.73959019
_cell_length_b   6.59654490
_cell_length_c   7.54843056
_cell_angle_alpha   82.40287009
_cell_angle_beta   87.19021101
_cell_angle_gamma   79.26070699
_symmetry_Int_Tables_number   1
_chemical_formula_structural   AlCo3N4
_chemical_formula_sum   'Al4 Co12 N16'
_cell_volume   278.23702490
_cell_formula_units_Z   4
loop_
 _symmetry_equiv_pos_site_id
 _symmetry_equiv_pos_as_xyz
  1  'x, y, z'
loop_
 _atom_site_type_symbol
 _atom_site_label
 _atom_site_symmetry_multiplicity
 _atom_site_fract_x
 _atom_site_fract_y
 _atom_site_fract_z
 _atom_site_occupancy
  Co  Co0  1  0.15447646  0.65841344  0.94022792  1
  Co  Co1  1  0.60629881  0.64694109  0.89918998  1
  Co  Co2  1  0.01562120  0.44005322  0.68153026  1
  Co  Co3  1  0.50681141  0.41072152  0.66940368  1
  Co  Co4  1  0.34046643  0.02609783  0.81412706  1
  Co  Co5  1  0.19036047  0.77384445  0.55295555  1
  Co  Co6  1  0.01979761  0.57477912  0.28358553  1
  Co  Co7  1  0.54008556  0.58092198  0.29972821  1
  Co  Co8  1  0.89728674  0.30685874  0.05346723  1
  Co  Co9  1  0.39990130  0.29870131  0.04980626  1
  Co  Co10  1  0.20027309  0.94325512  0.16463695  1
  Co  Co11  1  0.71495490  0.92198017  0.17315840  1
  Al  Al12  1  0.84881406  0.02999630  0.77970281  1
  Al  Al13  1  0.69879690  0.78726185  0.53915741  1
  Al  Al14  1  0.35274015  0.17885070  0.43469341  1
  Al  Al15  1  0.86231305  0.20138971  0.42132340  1
  N  N16  1  0.64378610  0.36878971  0.89672371  1
  N  N17  1  0.14641796  0.38472041  0.90383779  1
  N  N18  1  0.57407015  0.12040746  0.63756331  1
  N  N19  1  0.08008070  0.14496353  0.62863146  1
  N  N20  1  0.87298834  0.73851616  0.75828591  1
  N  N21  1  0.35546107  0.75779086  0.76243906  1
  N  N22  1  0.75374996  0.49362775  0.50516162  1
  N  N23  1  0.24096380  0.50154373  0.51440662  1
  N  N24  1  0.59519773  0.28671552  0.26649409  1
  N  N25  1  0.10868574  0.28319061  0.25704017  1
  N  N26  1  0.45947237  0.01849140  0.03167977  1
  N  N27  1  0.93863824  0.02813797  0.01583352  1
  N  N28  1  0.93012303  0.89774607  0.38552437  1
  N  N29  1  0.42541753  0.88126942  0.39367382  1
  N  N30  1  0.75478222  0.65331554  0.12854109  1
  N  N31  1  0.27116698  0.66070731  0.15746960  1
