# generated using pymatgen
data_AlFe3N4
_symmetry_space_group_name_H-M   'P 1'
_cell_length_a   5.79575930
_cell_length_b   6.38972543
_cell_length_c   7.63987048
_cell_angle_alpha   84.62558718
_cell_angle_beta   77.59376150
_cell_angle_gamma   77.08932699
_symmetry_Int_Tables_number   1
_chemical_formula_structural   AlFe3N4
_chemical_formula_sum   'Al4 Fe12 N16'
_cell_volume   269.02740580
_cell_formula_units_Z   4
loop_
 _symmetry_equiv_pos_site_id
 _symmetry_equiv_pos_as_xyz
  1  'x, y, z'
loop_
 _atom_site_type_symbol
 _atom_site_label
 _atom_site_symmetry_multiplicity
 _atom_site_fract_x
 _atom_site_fract_y
 _atom_site_fract_z
 _atom_site_occupancy
  Fe  Fe0  1  0.14998062  0.69620075  0.91235684  1
  Fe  Fe1  1  0.59191305  0.62731513  0.93825467  1
  Fe  Fe2  1  0.93684486  0.44462651  0.71781250  1
  Fe  Fe3  1  0.46513825  0.45637719  0.69625661  1
  Fe  Fe4  1  0.26316658  0.07412502  0.83612253  1
  Fe  Fe5  1  0.17770289  0.76417650  0.55045944  1
  Fe  Fe6  1  0.99402780  0.61614727  0.28699116  1
  Fe  Fe7  1  0.49037725  0.59540674  0.29104260  1
  Fe  Fe8  1  0.92707942  0.33359916  0.06804529  1
  Fe  Fe9  1  0.42097840  0.30458308  0.10932133  1
  Fe  Fe10  1  0.16232597  0.95126545  0.16205056  1
  Fe  Fe11  1  0.68190612  0.91387315  0.13991001  1
  Al  Al12  1  0.79045530  0.05175249  0.79577232  1
  Al  Al13  1  0.67008695  0.81114663  0.55340372  1
  Al  Al14  1  0.34521115  0.17766857  0.45621437  1
  Al  Al15  1  0.84961535  0.20520885  0.44169193  1
  N  N16  1  0.68348284  0.34903226  0.87295333  1
  N  N17  1  0.18757382  0.38109183  0.85128863  1
  N  N18  1  0.57299002  0.11961350  0.62817915  1
  N  N19  1  0.06537054  0.12585017  0.62947444  1
  N  N20  1  0.90142393  0.74367950  0.75355583  1
  N  N21  1  0.41357197  0.75465762  0.74740150  1
  N  N22  1  0.77964757  0.50348974  0.50628399  1
  N  N23  1  0.28986289  0.48017482  0.50293095  1
  N  N24  1  0.64381449  0.26531577  0.25513339  1
  N  N25  1  0.12772765  0.24390232  0.25027005  1
  N  N26  1  0.44647421  0.03263119  0.01758270  1
  N  N27  1  0.97465014  0.98397442  0.99548981  1
  N  N28  1  0.96498300  0.87728511  0.39015886  1
  N  N29  1  0.45334868  0.88182200  0.38368749  1
  N  N30  1  0.78453243  0.61757024  0.13345993  1
  N  N31  1  0.29373593  0.61643706  0.12644405  1
