# generated using pymatgen
data_Mn3AlN4
_symmetry_space_group_name_H-M   'P 1'
_cell_length_a   5.71497187
_cell_length_b   6.43130331
_cell_length_c   7.58082489
_cell_angle_alpha   84.67685634
_cell_angle_beta   79.31074814
_cell_angle_gamma   77.02151675
_symmetry_Int_Tables_number   1
_chemical_formula_structural   Mn3AlN4
_chemical_formula_sum   'Mn12 Al4 N16'
_cell_volume   266.42147105
_cell_formula_units_Z   4
loop_
 _symmetry_equiv_pos_site_id
 _symmetry_equiv_pos_as_xyz
  1  'x, y, z'
loop_
 _atom_site_type_symbol
 _atom_site_label
 _atom_site_symmetry_multiplicity
 _atom_site_fract_x
 _atom_site_fract_y
 _atom_site_fract_z
 _atom_site_occupancy
  Mn  Mn0  1  0.11934510  0.68497500  0.89537208  1
  Mn  Mn1  1  0.62714189  0.63230370  0.94505272  1
  Mn  Mn2  1  0.97990359  0.44614041  0.71332333  1
  Mn  Mn3  1  0.43351135  0.46161744  0.68159328  1
  Mn  Mn4  1  0.25284694  0.06333741  0.83307068  1
  Mn  Mn5  1  0.17514501  0.77278141  0.57195432  1
  Mn  Mn6  1  0.04237756  0.60708124  0.28284116  1
  Mn  Mn7  1  0.51866431  0.57803958  0.27417131  1
  Mn  Mn8  1  0.94141152  0.29155277  0.05644549  1
  Mn  Mn9  1  0.38515420  0.31211039  0.10442617  1
  Mn  Mn10  1  0.21621584  0.96837750  0.16646714  1
  Mn  Mn11  1  0.71334169  0.88935959  0.19024170  1
  Al  Al12  1  0.76325839  0.06717350  0.80784111  1
  Al  Al13  1  0.66316851  0.80937187  0.55611588  1
  Al  Al14  1  0.33295653  0.18103072  0.45334653  1
  Al  Al15  1  0.83250220  0.20874966  0.44558158  1
  N  N16  1  0.70789661  0.35852785  0.87213979  1
  N  N17  1  0.22115078  0.37148796  0.88761075  1
  N  N18  1  0.55831364  0.12428287  0.62074760  1
  N  N19  1  0.05360882  0.12703424  0.63313778  1
  N  N20  1  0.86745987  0.75805503  0.75044453  1
  N  N21  1  0.38963426  0.76018039  0.74487139  1
  N  N22  1  0.74536995  0.50509623  0.51543665  1
  N  N23  1  0.23757909  0.49277593  0.49774267  1
  N  N24  1  0.62837553  0.26526304  0.25483125  1
  N  N25  1  0.11560710  0.25359683  0.26628858  1
  N  N26  1  0.50153978  0.01294303  0.00086629  1
  N  N27  1  0.98682956  0.99214743  0.00592472  1
  N  N28  1  0.93242076  0.88754539  0.37013515  1
  N  N29  1  0.42388570  0.88045954  0.37226319  1
  N  N30  1  0.82085504  0.60781738  0.12676414  1
  N  N31  1  0.31252887  0.62878464  0.10295106  1
