# generated using pymatgen
data_AlV3N4
_symmetry_space_group_name_H-M   'P 1'
_cell_length_a   5.78969400
_cell_length_b   6.49453636
_cell_length_c   7.71773569
_cell_angle_alpha   84.99722310
_cell_angle_beta   79.15766157
_cell_angle_gamma   77.34614210
_symmetry_Int_Tables_number   1
_chemical_formula_structural   AlV3N4
_chemical_formula_sum   'Al4 V12 N16'
_cell_volume   277.77380596
_cell_formula_units_Z   4
loop_
 _symmetry_equiv_pos_site_id
 _symmetry_equiv_pos_as_xyz
  1  'x, y, z'
loop_
 _atom_site_type_symbol
 _atom_site_label
 _atom_site_symmetry_multiplicity
 _atom_site_fract_x
 _atom_site_fract_y
 _atom_site_fract_z
 _atom_site_occupancy
  V  V0  1  0.10095393  0.67497419  0.90687493  1
  V  V1  1  0.60081892  0.67055366  0.94105766  1
  V  V2  1  0.98192534  0.45241014  0.69413461  1
  V  V3  1  0.45143882  0.44792972  0.69902002  1
  V  V4  1  0.26804398  0.07607735  0.83164617  1
  V  V5  1  0.15768542  0.78349685  0.56766584  1
  V  V6  1  0.05391992  0.57318674  0.30809556  1
  V  V7  1  0.51585006  0.56608398  0.30377709  1
  V  V8  1  0.88523771  0.30563659  0.06774888  1
  V  V9  1  0.42538642  0.32192134  0.07373083  1
  V  V10  1  0.21132348  0.93820997  0.17835261  1
  V  V11  1  0.73536704  0.94460164  0.17735651  1
  Al  Al12  1  0.77814692  0.06413571  0.79958295  1
  Al  Al13  1  0.65401599  0.81180392  0.55650873  1
  Al  Al14  1  0.34049013  0.17354753  0.44611139  1
  Al  Al15  1  0.84347543  0.19885095  0.44553170  1
  N  N16  1  0.69357372  0.36272918  0.86571519  1
  N  N17  1  0.18432253  0.36988054  0.89136720  1
  N  N18  1  0.56322080  0.12176209  0.62281416  1
  N  N19  1  0.05894119  0.12608107  0.62425317  1
  N  N20  1  0.85630273  0.76386986  0.74519348  1
  N  N21  1  0.38428724  0.75907536  0.74507931  1
  N  N22  1  0.75053522  0.50677011  0.49994628  1
  N  N23  1  0.25913732  0.48024193  0.49976950  1
  N  N24  1  0.62361827  0.24476692  0.27027369  1
  N  N25  1  0.12541101  0.24735795  0.25824829  1
  N  N26  1  0.50793692  0.00444261  0.99753931  1
  N  N27  1  0.99311235  0.99479294  0.98659662  1
  N  N28  1  0.93350706  0.88142796  0.38120269  1
  N  N29  1  0.43759449  0.87566014  0.37706918  1
  N  N30  1  0.81713835  0.62357908  0.12672618  1
  N  N31  1  0.30728130  0.63414197  0.11101025  1
