# generated using pymatgen
data_Ti3AlN4
_symmetry_space_group_name_H-M   'P 1'
_cell_length_a   5.96066727
_cell_length_b   6.67569168
_cell_length_c   7.88627987
_cell_angle_alpha   85.17025988
_cell_angle_beta   79.23333055
_cell_angle_gamma   77.17227932
_symmetry_Int_Tables_number   1
_chemical_formula_structural   Ti3AlN4
_chemical_formula_sum   'Ti12 Al4 N16'
_cell_volume   300.29007131
_cell_formula_units_Z   4
loop_
 _symmetry_equiv_pos_site_id
 _symmetry_equiv_pos_as_xyz
  1  'x, y, z'
loop_
 _atom_site_type_symbol
 _atom_site_label
 _atom_site_symmetry_multiplicity
 _atom_site_fract_x
 _atom_site_fract_y
 _atom_site_fract_z
 _atom_site_occupancy
  Ti  Ti0  1  0.09680565  0.68397240  0.93905742  1
  Ti  Ti1  1  0.58978131  0.68567394  0.94010910  1
  Ti  Ti2  1  0.97112570  0.44151076  0.69009007  1
  Ti  Ti3  1  0.46207415  0.44392942  0.69202894  1
  Ti  Ti4  1  0.27739009  0.05924497  0.81923050  1
  Ti  Ti5  1  0.16103535  0.80573301  0.55834770  1
  Ti  Ti6  1  0.03610546  0.56457115  0.30987227  1
  Ti  Ti7  1  0.52659060  0.56315393  0.31281934  1
  Ti  Ti8  1  0.90710299  0.31791247  0.06143765  1
  Ti  Ti9  1  0.40291781  0.31751843  0.06173621  1
  Ti  Ti10  1  0.21979754  0.93363859  0.18554519  1
  Ti  Ti11  1  0.72152251  0.93365194  0.18336564  1
  Al  Al12  1  0.78134211  0.06235067  0.80488930  1
  Al  Al13  1  0.65865625  0.81721070  0.56065539  1
  Al  Al14  1  0.34500259  0.18323938  0.44061878  1
  Al  Al15  1  0.84308384  0.18664572  0.43970904  1
  N  N16  1  0.69143626  0.36206613  0.87325462  1
  N  N17  1  0.18677278  0.37282852  0.87550852  1
  N  N18  1  0.57166897  0.12025940  0.61844279  1
  N  N19  1  0.05568078  0.12829353  0.61985132  1
  N  N20  1  0.86618564  0.76229122  0.74584505  1
  N  N21  1  0.38386244  0.75338540  0.74321949  1
  N  N22  1  0.74839265  0.50555889  0.50119933  1
  N  N23  1  0.25382854  0.48626716  0.49836734  1
  N  N24  1  0.62429922  0.24612114  0.26198133  1
  N  N25  1  0.12212716  0.24256520  0.26296276  1
  N  N26  1  0.50864503  0.00438018  0.99284191  1
  N  N27  1  0.99199524  0.00303166  0.99200955  1
  N  N28  1  0.92832078  0.88025313  0.38136653  1
  N  N29  1  0.44160227  0.88234151  0.38250943  1
  N  N30  1  0.81176024  0.62434869  0.12531251  1
  N  N31  1  0.31308802  0.62605076  0.12581495  1
