# generated using pymatgen
data_AlSi3N4
_symmetry_space_group_name_H-M   'P 1'
_cell_length_a   5.92300564
_cell_length_b   5.82174442
_cell_length_c   9.63563295
_cell_angle_alpha   81.32929606
_cell_angle_beta   82.37089890
_cell_angle_gamma   75.85501927
_symmetry_Int_Tables_number   1
_chemical_formula_structural   AlSi3N4
_chemical_formula_sum   'Al4 Si12 N16'
_cell_volume   316.90346195
_cell_formula_units_Z   4
loop_
 _symmetry_equiv_pos_site_id
 _symmetry_equiv_pos_as_xyz
  1  'x, y, z'
loop_
 _atom_site_type_symbol
 _atom_site_label
 _atom_site_symmetry_multiplicity
 _atom_site_fract_x
 _atom_site_fract_y
 _atom_site_fract_z
 _atom_site_occupancy
  Si  Si0  1  0.19609065  0.50273864  0.96321358  1
  Si  Si1  1  0.60746197  0.52639285  0.93437110  1
  Si  Si2  1  0.00971098  0.41311226  0.68611178  1
  Si  Si3  1  0.46357919  0.41536560  0.68245916  1
  Si  Si4  1  0.30829573  0.94201792  0.84285228  1
  Si  Si5  1  0.15781795  0.82119643  0.55663095  1
  Si  Si6  1  0.96220671  0.65899745  0.32540555  1
  Si  Si7  1  0.53102123  0.65654998  0.31493768  1
  Si  Si8  1  0.81066760  0.28543687  0.11816607  1
  Si  Si9  1  0.32211115  0.37643105  0.18742938  1
  Si  Si10  1  0.17502421  0.01733935  0.25449369  1
  Si  Si11  1  0.77410615  0.93012745  0.04115787  1
  Al  Al12  1  0.81267649  0.00642607  0.75408104  1
  Al  Al13  1  0.64336147  0.82220793  0.56107178  1
  Al  Al14  1  0.32900013  0.22437676  0.46935520  1
  Al  Al15  1  0.82686186  0.23482849  0.45308518  1
  N  N16  1  0.72218655  0.35887846  0.78571094  1
  N  N17  1  0.23429130  0.29731690  0.81838235  1
  N  N18  1  0.58743876  0.14494733  0.59826285  1
  N  N19  1  0.04622959  0.14423827  0.60678728  1
  N  N20  1  0.90985896  0.72609621  0.67069285  1
  N  N21  1  0.37822418  0.76130759  0.69601112  1
  N  N22  1  0.72479287  0.56620428  0.45492452  1
  N  N23  1  0.26179318  0.50517285  0.54966354  1
  N  N24  1  0.59063178  0.33376278  0.27680795  1
  N  N25  1  0.10082064  0.34977909  0.33103302  1
  N  N26  1  0.58922158  0.86140169  0.91440385  1
  N  N27  1  0.05281917  0.84088892  0.92565468  1
  N  N28  1  0.95853283  0.91900298  0.40112652  1
  N  N29  1  0.38159720  0.91902045  0.40831858  1
  N  N30  1  0.76418986  0.73776537  0.19442402  1
  N  N31  1  0.26737807  0.70067171  0.22297362  1
