# generated using pymatgen
data_AlB3N4
_symmetry_space_group_name_H-M   'P 1'
_cell_length_a   5.20974043
_cell_length_b   6.89993576
_cell_length_c   8.48448915
_cell_angle_alpha   75.56518147
_cell_angle_beta   88.73219820
_cell_angle_gamma   75.08286174
_symmetry_Int_Tables_number   1
_chemical_formula_structural   AlB3N4
_chemical_formula_sum   'Al4 B12 N16'
_cell_volume   285.12067171
_cell_formula_units_Z   4
loop_
 _symmetry_equiv_pos_site_id
 _symmetry_equiv_pos_as_xyz
  1  'x, y, z'
loop_
 _atom_site_type_symbol
 _atom_site_label
 _atom_site_symmetry_multiplicity
 _atom_site_fract_x
 _atom_site_fract_y
 _atom_site_fract_z
 _atom_site_occupancy
  B  B0  1  0.10628385  0.84202034  0.80441736  1
  B  B1  1  0.52075424  0.54412715  0.91795190  1
  B  B2  1  0.94020570  0.45805308  0.82500611  1
  B  B3  1  0.19741642  0.58984631  0.69322181  1
  B  B4  1  0.24967373  0.18262438  0.69944207  1
  B  B5  1  0.05293747  0.81563543  0.38116812  1
  B  B6  1  0.80394437  0.65024665  0.36473510  1
  B  B7  1  0.41880696  0.64085102  0.42392303  1
  B  B8  1  0.01697752  0.38042174  0.23810484  1
  B  B9  1  0.52836687  0.38458639  0.20754651  1
  B  B10  1  0.34037459  0.79537284  0.08540358  1
  B  B11  1  0.86252519  0.79402792  0.07676794  1
  Al  Al12  1  0.73665648  0.11331772  0.85719940  1
  Al  Al13  1  0.62329028  0.82384114  0.63380561  1
  Al  Al14  1  0.48877915  0.02421323  0.22937092  1
  Al  Al15  1  0.76312414  0.22992889  0.52085200  1
  N  N16  1  0.73133173  0.37105848  0.88911719  1
  N  N17  1  0.18962464  0.36508277  0.76323615  1
  N  N18  1  0.52353303  0.10295113  0.65499661  1
  N  N19  1  0.03477012  0.07614239  0.69081414  1
  N  N20  1  0.92881126  0.69295353  0.76638894  1
  N  N21  1  0.37610666  0.70080508  0.77118052  1
  N  N22  1  0.67894088  0.52504800  0.48863228  1
  N  N23  1  0.19282738  0.65680027  0.51556876  1
  N  N24  1  0.79520869  0.27771405  0.28520174  1
  N  N25  1  0.30295932  0.28298093  0.24772813  1
  N  N26  1  0.58606608  0.93026390  0.03566485  1
  N  N27  1  0.07009559  0.87361719  0.98209973  1
  N  N28  1  0.76231305  0.87070239  0.38799247  1
  N  N29  1  0.29110879  0.81841986  0.26992658  1
  N  N30  1  0.91699648  0.61136817  0.21793342  1
  N  N31  1  0.46918935  0.57497763  0.07460213  1
