# generated using pymatgen
data_TiOs3N4
_symmetry_space_group_name_H-M   'P 1'
_cell_length_a   5.75952806
_cell_length_b   7.98035956
_cell_length_c   8.08218835
_cell_angle_alpha   94.09585494
_cell_angle_beta   75.75462872
_cell_angle_gamma   86.14487532
_symmetry_Int_Tables_number   1
_chemical_formula_structural   TiOs3N4
_chemical_formula_sum   'Ti4 Os12 N16'
_cell_volume   357.75550444
_cell_formula_units_Z   4
loop_
 _symmetry_equiv_pos_site_id
 _symmetry_equiv_pos_as_xyz
  1  'x, y, z'
loop_
 _atom_site_type_symbol
 _atom_site_label
 _atom_site_symmetry_multiplicity
 _atom_site_fract_x
 _atom_site_fract_y
 _atom_site_fract_z
 _atom_site_occupancy
  Os  Os0  1  0.07452949  0.69036972  0.95289191  1
  Os  Os1  1  0.52723690  0.68286113  0.94889780  1
  Os  Os2  1  0.97371412  0.44077866  0.69313656  1
  Os  Os3  1  0.38022758  0.37816485  0.78694213  1
  Os  Os4  1  0.28807095  0.05665531  0.76671396  1
  Os  Os5  1  0.14981005  0.80063038  0.56478860  1
  Os  Os6  1  0.03183409  0.58490534  0.31035076  1
  Os  Os7  1  0.58261350  0.56224458  0.31303133  1
  Os  Os8  1  0.91872747  0.30851760  0.12575695  1
  Os  Os9  1  0.47153711  0.30289026  0.09443090  1
  Os  Os10  1  0.20478305  0.93903865  0.13538394  1
  Os  Os11  1  0.72827532  0.93738333  0.07492490  1
  Ti  Ti12  1  0.75164438  0.15526862  0.79126461  1
  Ti  Ti13  1  0.65392832  0.72508723  0.60096164  1
  Ti  Ti14  1  0.38590350  0.06904163  0.42026993  1
  Ti  Ti15  1  0.85479258  0.24389056  0.44683308  1
  N  N16  1  0.65779846  0.42121113  0.87497124  1
  N  N17  1  0.05861885  0.43737902  0.92771741  1
  N  N18  1  0.54939548  0.17456873  0.60482539  1
  N  N19  1  0.07318877  0.17035198  0.60808420  1
  N  N20  1  0.87932259  0.70341787  0.76168820  1
  N  N21  1  0.33340789  0.79333629  0.77274924  1
  N  N22  1  0.77457301  0.48982546  0.49686019  1
  N  N23  1  0.23277224  0.53957408  0.48491901  1
  N  N24  1  0.66484970  0.15361972  0.24243924  1
  N  N25  1  0.16198117  0.18279593  0.24580884  1
  N  N26  1  0.46854326  0.06378206  0.97135588  1
  N  N27  1  0.97241144  0.09422456  0.94981120  1
  N  N28  1  0.08758095  0.82995184  0.33461270  1
  N  N29  1  0.49763680  0.81975318  0.42964824  1
  N  N30  1  0.74250783  0.69373815  0.11311700  1
  N  N31  1  0.36778318  0.55474214  0.15481300  1
