# generated using pymatgen
data_TiRe3N4
_symmetry_space_group_name_H-M   'P 1'
_cell_length_a   5.68524391
_cell_length_b   7.67721624
_cell_length_c   8.10504500
_cell_angle_alpha   83.13018029
_cell_angle_beta   90.02891410
_cell_angle_gamma   78.95324687
_symmetry_Int_Tables_number   1
_chemical_formula_structural   TiRe3N4
_chemical_formula_sum   'Ti4 Re12 N16'
_cell_volume   344.61252688
_cell_formula_units_Z   4
loop_
 _symmetry_equiv_pos_site_id
 _symmetry_equiv_pos_as_xyz
  1  'x, y, z'
loop_
 _atom_site_type_symbol
 _atom_site_label
 _atom_site_symmetry_multiplicity
 _atom_site_fract_x
 _atom_site_fract_y
 _atom_site_fract_z
 _atom_site_occupancy
  Re  Re0  1  0.17457550  0.75493046  0.95886288  1
  Re  Re1  1  0.68269401  0.77498702  0.94313324  1
  Re  Re2  1  0.01911471  0.43226505  0.66972860  1
  Re  Re3  1  0.47464512  0.45308853  0.66284637  1
  Re  Re4  1  0.34555839  0.06166592  0.80135364  1
  Re  Re5  1  0.18527749  0.82612601  0.63281102  1
  Re  Re6  1  0.97401454  0.64847619  0.25121433  1
  Re  Re7  1  0.44850351  0.65083432  0.25257647  1
  Re  Re8  1  0.80050195  0.26456832  0.07481346  1
  Re  Re9  1  0.30309631  0.25625511  0.08331168  1
  Re  Re10  1  0.12938040  0.94438914  0.22476941  1
  Re  Re11  1  0.63720118  0.94205146  0.23070747  1
  Ti  Ti12  1  0.83737060  0.08438630  0.78748317  1
  Ti  Ti13  1  0.67233014  0.74533428  0.58757261  1
  Ti  Ti14  1  0.30012600  0.23734392  0.45197350  1
  Ti  Ti15  1  0.79898661  0.26033353  0.44968253  1
  N  N16  1  0.77335296  0.35244784  0.82794926  1
  N  N17  1  0.28420001  0.33376579  0.83893260  1
  N  N18  1  0.57077698  0.16771498  0.61464179  1
  N  N19  1  0.07900519  0.11574746  0.60080892  1
  N  N20  1  0.96194254  0.67604087  0.77108159  1
  N  N21  1  0.44620587  0.66937641  0.79458431  1
  N  N22  1  0.73042984  0.51484496  0.48135992  1
  N  N23  1  0.23452722  0.49874614  0.43975128  1
  N  N24  1  0.56803707  0.21822447  0.26417048  1
  N  N25  1  0.05516798  0.22049289  0.26620236  1
  N  N26  1  0.61716535  0.03503518  0.98700125  1
  N  N27  1  0.09557186  0.09426856  0.99586696  1
  N  N28  1  0.91916357  0.84731663  0.41439643  1
  N  N29  1  0.39542023  0.86555702  0.40904119  1
  N  N30  1  0.74159992  0.53346426  0.11759740  1
  N  N31  1  0.24405698  0.51992095  0.11377385  1
