# generated using pymatgen
data_TiW3N4
_symmetry_space_group_name_H-M   'P 1'
_cell_length_a   6.13229826
_cell_length_b   6.79075343
_cell_length_c   8.08278982
_cell_angle_alpha   86.10264589
_cell_angle_beta   82.73181745
_cell_angle_gamma   76.19204916
_symmetry_Int_Tables_number   1
_chemical_formula_structural   TiW3N4
_chemical_formula_sum   'Ti4 W12 N16'
_cell_volume   323.98813985
_cell_formula_units_Z   4
loop_
 _symmetry_equiv_pos_site_id
 _symmetry_equiv_pos_as_xyz
  1  'x, y, z'
loop_
 _atom_site_type_symbol
 _atom_site_label
 _atom_site_symmetry_multiplicity
 _atom_site_fract_x
 _atom_site_fract_y
 _atom_site_fract_z
 _atom_site_occupancy
  W  W0  1  0.06051611  0.65649553  0.94750186  1
  W  W1  1  0.60712985  0.69502683  0.91340476  1
  W  W2  1  0.94427590  0.44102130  0.71159470  1
  W  W3  1  0.49784901  0.44382170  0.67164744  1
  W  W4  1  0.32724408  0.03024333  0.78712365  1
  W  W5  1  0.20302056  0.81078476  0.54749809  1
  W  W6  1  0.03871078  0.59030945  0.30082321  1
  W  W7  1  0.50206370  0.55216192  0.32193192  1
  W  W8  1  0.92268308  0.28925623  0.06094688  1
  W  W9  1  0.36475538  0.32266637  0.08912030  1
  W  W10  1  0.19821580  0.96065932  0.19065554  1
  W  W11  1  0.76811526  0.92049207  0.17510717  1
  Ti  Ti12  1  0.77154065  0.06845127  0.81287046  1
  Ti  Ti13  1  0.66229182  0.81865533  0.55815925  1
  Ti  Ti14  1  0.33939921  0.18526688  0.44290171  1
  Ti  Ti15  1  0.81754505  0.21142344  0.45583049  1
  N  N16  1  0.64771595  0.37213722  0.90514407  1
  N  N17  1  0.22758964  0.35054259  0.85425062  1
  N  N18  1  0.56770758  0.13168383  0.62031221  1
  N  N19  1  0.06592257  0.12427169  0.62782117  1
  N  N20  1  0.90097134  0.76100503  0.72910348  1
  N  N21  1  0.31987003  0.72077956  0.77949051  1
  N  N22  1  0.77592134  0.52356003  0.48166716  1
  N  N23  1  0.20910415  0.49624909  0.52736545  1
  N  N24  1  0.63694078  0.23999488  0.24169387  1
  N  N25  1  0.09197157  0.26662419  0.27684200  1
  N  N26  1  0.49546447  0.00401800  0.01073807  1
  N  N27  1  0.03256132  0.98311439  0.97428430  1
  N  N28  1  0.93836698  0.89517780  0.39104028  1
  N  N29  1  0.46557937  0.87938647  0.35060645  1
  N  N30  1  0.76643862  0.60480998  0.14204582  1
  N  N31  1  0.33251804  0.64990957  0.10047711  1
