# generated using pymatgen
data_Ta3TiN4
_symmetry_space_group_name_H-M   'P 1'
_cell_length_a   6.18198084
_cell_length_b   6.88745953
_cell_length_c   8.24214880
_cell_angle_alpha   85.94608193
_cell_angle_beta   80.07875380
_cell_angle_gamma   77.00677381
_symmetry_Int_Tables_number   1
_chemical_formula_structural   Ta3TiN4
_chemical_formula_sum   'Ta12 Ti4 N16'
_cell_volume   336.64982282
_cell_formula_units_Z   4
loop_
 _symmetry_equiv_pos_site_id
 _symmetry_equiv_pos_as_xyz
  1  'x, y, z'
loop_
 _atom_site_type_symbol
 _atom_site_label
 _atom_site_symmetry_multiplicity
 _atom_site_fract_x
 _atom_site_fract_y
 _atom_site_fract_z
 _atom_site_occupancy
  Ta  Ta0  1  0.07068606  0.68776658  0.93804212  1
  Ta  Ta1  1  0.61849063  0.68329113  0.92416608  1
  Ta  Ta2  1  0.94686535  0.43820977  0.69149846  1
  Ta  Ta3  1  0.49382606  0.43309047  0.68228996  1
  Ta  Ta4  1  0.28597891  0.06586210  0.80940430  1
  Ta  Ta5  1  0.16515174  0.81345639  0.54776514  1
  Ta  Ta6  1  0.05227455  0.55804744  0.31017088  1
  Ta  Ta7  1  0.50958608  0.56220371  0.31810756  1
  Ta  Ta8  1  0.92797601  0.31091197  0.05995670  1
  Ta  Ta9  1  0.38402368  0.31065635  0.07233544  1
  Ta  Ta10  1  0.22883632  0.93835288  0.19311598  1
  Ta  Ta11  1  0.69960923  0.93962507  0.19036334  1
  Ti  Ti12  1  0.77868743  0.06868969  0.80316954  1
  Ti  Ti13  1  0.65934968  0.81589402  0.57077013  1
  Ti  Ti14  1  0.34413662  0.18945005  0.43314591  1
  Ti  Ti15  1  0.83357342  0.18503672  0.45394581  1
  N  N16  1  0.67773620  0.36242452  0.89273200  1
  N  N17  1  0.19935395  0.38285426  0.85953824  1
  N  N18  1  0.55755011  0.12254129  0.62206045  1
  N  N19  1  0.06541062  0.12496395  0.62362965  1
  N  N20  1  0.88741229  0.76224347  0.73519349  1
  N  N21  1  0.36921517  0.74815843  0.75200435  1
  N  N22  1  0.75721034  0.50722363  0.48617318  1
  N  N23  1  0.24238793  0.48877631  0.51702913  1
  N  N24  1  0.63097810  0.25191565  0.24817633  1
  N  N25  1  0.10749819  0.24289119  0.26916518  1
  N  N26  1  0.50529102  0.99930571  0.99197340  1
  N  N27  1  0.99759039  0.99795198  0.00234755  1
  N  N28  1  0.93037616  0.87851830  0.37183689  1
  N  N29  1  0.44857023  0.87853387  0.38514387  1
  N  N30  1  0.80196409  0.61947058  0.13908421  1
  N  N31  1  0.32240346  0.63168253  0.10566473  1
