# generated using pymatgen
data_Hf3TiN4
_symmetry_space_group_name_H-M   'P 1'
_cell_length_a   6.32764842
_cell_length_b   7.09396568
_cell_length_c   8.37645640
_cell_angle_alpha   85.10247733
_cell_angle_beta   79.12642225
_cell_angle_gamma   77.08686597
_symmetry_Int_Tables_number   1
_chemical_formula_structural   Hf3TiN4
_chemical_formula_sum   'Hf12 Ti4 N16'
_cell_volume   359.54713044
_cell_formula_units_Z   4
loop_
 _symmetry_equiv_pos_site_id
 _symmetry_equiv_pos_as_xyz
  1  'x, y, z'
loop_
 _atom_site_type_symbol
 _atom_site_label
 _atom_site_symmetry_multiplicity
 _atom_site_fract_x
 _atom_site_fract_y
 _atom_site_fract_z
 _atom_site_occupancy
  Hf  Hf0  1  0.09031918  0.69132908  0.93695622  1
  Hf  Hf1  1  0.59535176  0.69341750  0.93379803  1
  Hf  Hf2  1  0.96824295  0.43106564  0.68309682  1
  Hf  Hf3  1  0.47440113  0.43175756  0.68314626  1
  Hf  Hf4  1  0.28579364  0.06153203  0.80723978  1
  Hf  Hf5  1  0.15071176  0.82231111  0.56331656  1
  Hf  Hf6  1  0.03034030  0.55704403  0.31615851  1
  Hf  Hf7  1  0.53322446  0.55688760  0.31561507  1
  Hf  Hf8  1  0.90482558  0.30972045  0.06301633  1
  Hf  Hf9  1  0.40947338  0.30972822  0.06160785  1
  Hf  Hf10  1  0.21650256  0.94245167  0.19243609  1
  Hf  Hf11  1  0.71600519  0.94171962  0.19325605  1
  Ti  Ti12  1  0.77818390  0.05880920  0.80826670  1
  Ti  Ti13  1  0.65646141  0.83008651  0.56482305  1
  Ti  Ti14  1  0.35060582  0.18534921  0.43520341  1
  Ti  Ti15  1  0.83915138  0.17748648  0.44224104  1
  N  N16  1  0.68865446  0.37357708  0.87387166  1
  N  N17  1  0.18721959  0.37527283  0.87443700  1
  N  N18  1  0.56485631  0.12501998  0.62206139  1
  N  N19  1  0.06071365  0.12640769  0.62261534  1
  N  N20  1  0.87385185  0.75063347  0.74618407  1
  N  N21  1  0.37822600  0.74853042  0.74602905  1
  N  N22  1  0.74975437  0.49995888  0.50021274  1
  N  N23  1  0.25006706  0.49935798  0.50088808  1
  N  N24  1  0.62500083  0.24912450  0.25460956  1
  N  N25  1  0.12365351  0.24934924  0.25517253  1
  N  N26  1  0.50063682  0.00031947  0.99943445  1
  N  N27  1  0.99943634  0.00098504  0.99789399  1
  N  N28  1  0.93546572  0.87442827  0.37706443  1
  N  N29  1  0.43882469  0.87441437  0.37853982  1
  N  N30  1  0.81192168  0.62585859  0.12552638  1
  N  N31  1  0.31212274  0.62606625  0.12528178  1
