# generated using pymatgen
data_TiMo3N4
_symmetry_space_group_name_H-M   'P 1'
_cell_length_a   6.00780203
_cell_length_b   6.82436674
_cell_length_c   8.25221992
_cell_angle_alpha   86.39068797
_cell_angle_beta   79.54750577
_cell_angle_gamma   76.91831171
_symmetry_Int_Tables_number   1
_chemical_formula_structural   TiMo3N4
_chemical_formula_sum   'Ti4 Mo12 N16'
_cell_volume   324.00264569
_cell_formula_units_Z   4
loop_
 _symmetry_equiv_pos_site_id
 _symmetry_equiv_pos_as_xyz
  1  'x, y, z'
loop_
 _atom_site_type_symbol
 _atom_site_label
 _atom_site_symmetry_multiplicity
 _atom_site_fract_x
 _atom_site_fract_y
 _atom_site_fract_z
 _atom_site_occupancy
  Mo  Mo0  1  0.04141832  0.69738460  0.93245767  1
  Mo  Mo1  1  0.60847305  0.66639202  0.91664893  1
  Mo  Mo2  1  0.94367830  0.42648008  0.70248710  1
  Mo  Mo3  1  0.50042264  0.43399704  0.70489099  1
  Mo  Mo4  1  0.27920485  0.10351443  0.78532182  1
  Mo  Mo5  1  0.16840628  0.80117031  0.53290533  1
  Mo  Mo6  1  0.06653903  0.57965932  0.31839215  1
  Mo  Mo7  1  0.50803093  0.57898871  0.32469768  1
  Mo  Mo8  1  0.93385840  0.29318788  0.08196383  1
  Mo  Mo9  1  0.38771965  0.28619969  0.08547022  1
  Mo  Mo10  1  0.19041407  0.95581780  0.18445587  1
  Mo  Mo11  1  0.72628777  0.96607654  0.16300082  1
  Ti  Ti12  1  0.79166529  0.03374149  0.81210962  1
  Ti  Ti13  1  0.62997047  0.80814488  0.54622231  1
  Ti  Ti14  1  0.33594012  0.17688626  0.46167476  1
  Ti  Ti15  1  0.82617764  0.19687309  0.44892714  1
  N  N16  1  0.69426487  0.34835782  0.90146468  1
  N  N17  1  0.20093316  0.38592565  0.88672941  1
  N  N18  1  0.57903210  0.12088999  0.62292101  1
  N  N19  1  0.05229064  0.11116153  0.62079747  1
  N  N20  1  0.88320952  0.74196678  0.72116814  1
  N  N21  1  0.36964408  0.75475811  0.74811183  1
  N  N22  1  0.76053989  0.50465249  0.49930895  1
  N  N23  1  0.25513560  0.48756092  0.52045572  1
  N  N24  1  0.62711309  0.25903232  0.25864597  1
  N  N25  1  0.11851698  0.25764976  0.28182149  1
  N  N26  1  0.49472536  0.98791586  0.98701702  1
  N  N27  1  0.02778980  0.00087287  0.97538752  1
  N  N28  1  0.91604122  0.88929182  0.37250658  1
  N  N29  1  0.44361973  0.89539327  0.34902235  1
  N  N30  1  0.81352176  0.62298329  0.14001643  1
  N  N31  1  0.32541538  0.62707341  0.11299917  1
