# generated using pymatgen
data_TiNb3N4
_symmetry_space_group_name_H-M   'P 1'
_cell_length_a   6.22279109
_cell_length_b   6.91960973
_cell_length_c   8.29380969
_cell_angle_alpha   85.67655501
_cell_angle_beta   80.05573716
_cell_angle_gamma   77.03111049
_symmetry_Int_Tables_number   1
_chemical_formula_structural   TiNb3N4
_chemical_formula_sum   'Ti4 Nb12 N16'
_cell_volume   342.53775048
_cell_formula_units_Z   4
loop_
 _symmetry_equiv_pos_site_id
 _symmetry_equiv_pos_as_xyz
  1  'x, y, z'
loop_
 _atom_site_type_symbol
 _atom_site_label
 _atom_site_symmetry_multiplicity
 _atom_site_fract_x
 _atom_site_fract_y
 _atom_site_fract_z
 _atom_site_occupancy
  Nb  Nb0  1  0.10269212  0.69582069  0.91711923  1
  Nb  Nb1  1  0.59241958  0.68517373  0.94720104  1
  Nb  Nb2  1  0.98376031  0.44192329  0.68476898  1
  Nb  Nb3  1  0.45249129  0.43290337  0.68785485  1
  Nb  Nb4  1  0.27677592  0.06829935  0.80142791  1
  Nb  Nb5  1  0.15267790  0.80712920  0.57599049  1
  Nb  Nb6  1  0.01662083  0.55323849  0.31450948  1
  Nb  Nb7  1  0.54919946  0.56216267  0.30344528  1
  Nb  Nb8  1  0.88070475  0.31177323  0.07241554  1
  Nb  Nb9  1  0.42396896  0.31057857  0.06970193  1
  Nb  Nb10  1  0.24487646  0.93838251  0.18417218  1
  Nb  Nb11  1  0.70156182  0.94129114  0.18903464  1
  Ti  Ti12  1  0.79370355  0.06116366  0.80424518  1
  Ti  Ti13  1  0.65431328  0.82076375  0.56001658  1
  Ti  Ti14  1  0.33450428  0.18387653  0.44755375  1
  Ti  Ti15  1  0.84133690  0.18618597  0.43983666  1
  N  N16  1  0.69106745  0.37179624  0.86524778  1
  N  N17  1  0.18030946  0.37194751  0.89160350  1
  N  N18  1  0.56916031  0.12174450  0.62130156  1
  N  N19  1  0.05180159  0.12834505  0.61756535  1
  N  N20  1  0.85600043  0.75574167  0.74922444  1
  N  N21  1  0.39768569  0.74958804  0.74597406  1
  N  N22  1  0.74372431  0.49885292  0.50811194  1
  N  N23  1  0.25797975  0.50000535  0.48558486  1
  N  N24  1  0.61576992  0.24352767  0.27275069  1
  N  N25  1  0.12500781  0.24497722  0.25330591  1
  N  N26  1  0.50955264  0.00602407  0.98221793  1
  N  N27  1  0.99647256  0.00194133  0.00148679  1
  N  N28  1  0.93682950  0.87543256  0.37684750  1
  N  N29  1  0.43456740  0.87307685  0.38752341  1
  N  N30  1  0.83161579  0.63197352  0.11458759  1
  N  N31  1  0.30084795  0.62435936  0.12737301  1
