# generated using pymatgen
data_Zr3TiN4
_symmetry_space_group_name_H-M   'P 1'
_cell_length_a   6.38728207
_cell_length_b   7.16671287
_cell_length_c   8.45676983
_cell_angle_alpha   85.11365226
_cell_angle_beta   79.10177904
_cell_angle_gamma   77.06417934
_symmetry_Int_Tables_number   1
_chemical_formula_structural   Zr3TiN4
_chemical_formula_sum   'Zr12 Ti4 N16'
_cell_volume   370.11487417
_cell_formula_units_Z   4
loop_
 _symmetry_equiv_pos_site_id
 _symmetry_equiv_pos_as_xyz
  1  'x, y, z'
loop_
 _atom_site_type_symbol
 _atom_site_label
 _atom_site_symmetry_multiplicity
 _atom_site_fract_x
 _atom_site_fract_y
 _atom_site_fract_z
 _atom_site_occupancy
  Zr  Zr0  1  0.09145791  0.69025938  0.93647226  1
  Zr  Zr1  1  0.59468934  0.69117803  0.93413876  1
  Zr  Zr2  1  0.96792147  0.43227718  0.68422691  1
  Zr  Zr3  1  0.47408566  0.43080242  0.68361709  1
  Zr  Zr4  1  0.28494687  0.06169368  0.80691072  1
  Zr  Zr5  1  0.15227841  0.82038495  0.56278065  1
  Zr  Zr6  1  0.03032008  0.55891471  0.31596172  1
  Zr  Zr7  1  0.53263085  0.55926072  0.31538856  1
  Zr  Zr8  1  0.90483328  0.31046147  0.06399596  1
  Zr  Zr9  1  0.40831852  0.31083274  0.06248229  1
  Zr  Zr10  1  0.21698533  0.94112551  0.19162471  1
  Zr  Zr11  1  0.71661672  0.94075316  0.19179295  1
  Ti  Ti12  1  0.77914441  0.05953502  0.80900808  1
  Ti  Ti13  1  0.65549724  0.82992920  0.56349481  1
  Ti  Ti14  1  0.34935073  0.18538571  0.43578621  1
  Ti  Ti15  1  0.84086448  0.17806279  0.44226919  1
  N  N16  1  0.69027924  0.36775613  0.87333903  1
  N  N17  1  0.18712231  0.37434351  0.87465449  1
  N  N18  1  0.57098939  0.12048089  0.61914267  1
  N  N19  1  0.05691273  0.12697839  0.62035017  1
  N  N20  1  0.86870260  0.75692131  0.74450232  1
  N  N21  1  0.38285154  0.74877858  0.74314907  1
  N  N22  1  0.75007660  0.49905516  0.50013890  1
  N  N23  1  0.25157777  0.49452050  0.49991626  1
  N  N24  1  0.62329099  0.24754733  0.26033425  1
  N  N25  1  0.12309521  0.24800690  0.26041017  1
  N  N26  1  0.50481843  0.00106100  0.99584079  1
  N  N27  1  0.99677329  0.00211473  0.99494617  1
  N  N28  1  0.92947110  0.87945559  0.38075993  1
  N  N29  1  0.44026657  0.87978553  0.38158299  1
  N  N30  1  0.81212042  0.62620308  0.12558412  1
  N  N31  1  0.31171053  0.62613470  0.12539778  1
