# generated using pymatgen
data_Y3TiN4
_symmetry_space_group_name_H-M   'P 1'
_cell_length_a   6.72420209
_cell_length_b   7.53140569
_cell_length_c   8.90080027
_cell_angle_alpha   85.02768674
_cell_angle_beta   78.79732858
_cell_angle_gamma   77.33027191
_symmetry_Int_Tables_number   1
_chemical_formula_structural   Y3TiN4
_chemical_formula_sum   'Y12 Ti4 N16'
_cell_volume   430.94766673
_cell_formula_units_Z   4
loop_
 _symmetry_equiv_pos_site_id
 _symmetry_equiv_pos_as_xyz
  1  'x, y, z'
loop_
 _atom_site_type_symbol
 _atom_site_label
 _atom_site_symmetry_multiplicity
 _atom_site_fract_x
 _atom_site_fract_y
 _atom_site_fract_z
 _atom_site_occupancy
  Y  Y0  1  0.08862998  0.69011271  0.93486039  1
  Y  Y1  1  0.59451688  0.68869565  0.93253347  1
  Y  Y2  1  0.96949866  0.43122080  0.68307993  1
  Y  Y3  1  0.47781459  0.42739201  0.68128196  1
  Y  Y4  1  0.27954605  0.06554348  0.80326609  1
  Y  Y5  1  0.16064710  0.81822638  0.56123663  1
  Y  Y6  1  0.02762216  0.55830085  0.31717408  1
  Y  Y7  1  0.53205377  0.55523341  0.31595335  1
  Y  Y8  1  0.90073401  0.30818218  0.06560912  1
  Y  Y9  1  0.40339114  0.31174625  0.06140614  1
  Y  Y10  1  0.21516161  0.93866950  0.18786549  1
  Y  Y11  1  0.71402131  0.94087557  0.19587215  1
  Ti  Ti12  1  0.76913086  0.06079457  0.82750169  1
  Ti  Ti13  1  0.66470321  0.85505707  0.57672467  1
  Ti  Ti14  1  0.34026819  0.18604777  0.41688884  1
  Ti  Ti15  1  0.86122502  0.18354733  0.45531453  1
  N  N16  1  0.69224326  0.35411731  0.87325315  1
  N  N17  1  0.18517090  0.37442572  0.87279309  1
  N  N18  1  0.59359383  0.10964172  0.62418863  1
  N  N19  1  0.05588099  0.12964831  0.60955598  1
  N  N20  1  0.85696501  0.77518646  0.74026068  1
  N  N21  1  0.40074234  0.75763064  0.73205220  1
  N  N22  1  0.76422569  0.45294083  0.49339837  1
  N  N23  1  0.25403877  0.48715508  0.49722249  1
  N  N24  1  0.59882471  0.24541977  0.26604616  1
  N  N25  1  0.12774505  0.24021084  0.27146844  1
  N  N26  1  0.51754301  0.00409207  0.98566938  1
  N  N27  1  0.98640854  0.00377828  0.98768354  1
  N  N28  1  0.91407839  0.88887134  0.39545558  1
  N  N29  1  0.43244388  0.90488808  0.38296498  1
  N  N30  1  0.81235272  0.62397230  0.12664826  1
  N  N31  1  0.30877839  0.62837572  0.12477056  1
