# generated using pymatgen
data_TiNi3N4
_symmetry_space_group_name_H-M   'P 1'
_cell_length_a   5.84973579
_cell_length_b   6.57308343
_cell_length_c   7.65175605
_cell_angle_alpha   84.71630834
_cell_angle_beta   79.12850619
_cell_angle_gamma   76.83997503
_symmetry_Int_Tables_number   1
_chemical_formula_structural   TiNi3N4
_chemical_formula_sum   'Ti4 Ni12 N16'
_cell_volume   280.97590036
_cell_formula_units_Z   4
loop_
 _symmetry_equiv_pos_site_id
 _symmetry_equiv_pos_as_xyz
  1  'x, y, z'
loop_
 _atom_site_type_symbol
 _atom_site_label
 _atom_site_symmetry_multiplicity
 _atom_site_fract_x
 _atom_site_fract_y
 _atom_site_fract_z
 _atom_site_occupancy
  Ni  Ni0  1  0.09258453  0.68381302  0.93583398  1
  Ni  Ni1  1  0.59364476  0.68345417  0.93958060  1
  Ni  Ni2  1  0.96769711  0.43943724  0.68986829  1
  Ni  Ni3  1  0.47132625  0.42769483  0.68884476  1
  Ni  Ni4  1  0.28722885  0.06914303  0.80908976  1
  Ni  Ni5  1  0.15436096  0.81761126  0.55960859  1
  Ni  Ni6  1  0.02828597  0.57083340  0.31145440  1
  Ni  Ni7  1  0.53042379  0.56545358  0.31145841  1
  Ni  Ni8  1  0.90942135  0.31512566  0.06417650  1
  Ni  Ni9  1  0.40246261  0.31493469  0.06604692  1
  Ni  Ni10  1  0.22671757  0.93133029  0.18523159  1
  Ni  Ni11  1  0.71568303  0.93734243  0.18776555  1
  Ti  Ti12  1  0.79227240  0.06791430  0.83034014  1
  Ti  Ti13  1  0.63854421  0.78249309  0.57497919  1
  Ti  Ti14  1  0.32922522  0.22324905  0.44426145  1
  Ti  Ti15  1  0.84589908  0.17906643  0.41747421  1
  N  N16  1  0.68339250  0.37380125  0.88657118  1
  N  N17  1  0.18807673  0.37168057  0.89048889  1
  N  N18  1  0.56749798  0.12284058  0.62164141  1
  N  N19  1  0.06333141  0.12766233  0.62551605  1
  N  N20  1  0.87468285  0.74416052  0.74975394  1
  N  N21  1  0.37027512  0.72843236  0.75147698  1
  N  N22  1  0.75047213  0.49444747  0.49589123  1
  N  N23  1  0.24327533  0.51558965  0.50477869  1
  N  N24  1  0.62073290  0.25605263  0.24769761  1
  N  N25  1  0.11998000  0.27510952  0.25015289  1
  N  N26  1  0.49474021  0.97838241  0.99793259  1
  N  N27  1  0.02250264  0.00295210  0.00258815  1
  N  N28  1  0.94712293  0.87199269  0.36377192  1
  N  N29  1  0.43646418  0.86569847  0.36568996  1
  N  N30  1  0.82071359  0.63941983  0.11818665  1
  N  N31  1  0.31096183  0.62288120  0.11184752  1
