# generated using pymatgen
data_TiCo3N4
_symmetry_space_group_name_H-M   'P 1'
_cell_length_a   5.80387780
_cell_length_b   6.63640945
_cell_length_c   7.66321385
_cell_angle_alpha   84.27089473
_cell_angle_beta   87.99295992
_cell_angle_gamma   79.99301062
_symmetry_Int_Tables_number   1
_chemical_formula_structural   TiCo3N4
_chemical_formula_sum   'Ti4 Co12 N16'
_cell_volume   289.17389039
_cell_formula_units_Z   4
loop_
 _symmetry_equiv_pos_site_id
 _symmetry_equiv_pos_as_xyz
  1  'x, y, z'
loop_
 _atom_site_type_symbol
 _atom_site_label
 _atom_site_symmetry_multiplicity
 _atom_site_fract_x
 _atom_site_fract_y
 _atom_site_fract_z
 _atom_site_occupancy
  Co  Co0  1  0.14702483  0.65391228  0.93930294  1
  Co  Co1  1  0.60411303  0.64288216  0.88469656  1
  Co  Co2  1  0.02286705  0.44490503  0.67723896  1
  Co  Co3  1  0.60984335  0.38417498  0.66627509  1
  Co  Co4  1  0.38672338  0.02225288  0.79387838  1
  Co  Co5  1  0.20677973  0.77026452  0.55968074  1
  Co  Co6  1  0.96884716  0.57783454  0.25732205  1
  Co  Co7  1  0.51177481  0.58679696  0.29988688  1
  Co  Co8  1  0.87830590  0.30324445  0.05757931  1
  Co  Co9  1  0.37617715  0.29521109  0.04500427  1
  Co  Co10  1  0.18293734  0.94364125  0.19233694  1
  Co  Co11  1  0.67109186  0.93474427  0.17651460  1
  Ti  Ti12  1  0.88579956  0.03024213  0.79134448  1
  Ti  Ti13  1  0.70822709  0.79510750  0.53306707  1
  Ti  Ti14  1  0.34608654  0.22352516  0.45489901  1
  Ti  Ti15  1  0.84973431  0.20592346  0.40591224  1
  N  N16  1  0.62239412  0.36158201  0.90428887  1
  N  N17  1  0.12053150  0.38489697  0.90828788  1
  N  N18  1  0.62489138  0.10485396  0.61792826  1
  N  N19  1  0.10858949  0.14428501  0.63288883  1
  N  N20  1  0.87976708  0.72553011  0.77087616  1
  N  N21  1  0.34421171  0.76719998  0.77343366  1
  N  N22  1  0.78885773  0.50177156  0.47899882  1
  N  N23  1  0.30843919  0.49190032  0.55359810  1
  N  N24  1  0.59127027  0.28712061  0.24597103  1
  N  N25  1  0.11061254  0.28701688  0.25186013  1
  N  N26  1  0.41335904  0.02033885  0.03153509  1
  N  N27  1  0.92539131  0.01718575  0.04555152  1
  N  N28  1  0.94266977  0.88150385  0.37697061  1
  N  N29  1  0.41891413  0.87336693  0.38871304  1
  N  N30  1  0.70582251  0.67238145  0.12275571  1
  N  N31  1  0.23794516  0.66440309  0.16140275  1
