# generated using pymatgen
data_TiFe3N4
_symmetry_space_group_name_H-M   'P 1'
_cell_length_a   5.75074308
_cell_length_b   7.43401764
_cell_length_c   7.84339586
_cell_angle_alpha   77.08977089
_cell_angle_beta   68.74986041
_cell_angle_gamma   83.80638325
_symmetry_Int_Tables_number   1
_chemical_formula_structural   TiFe3N4
_chemical_formula_sum   'Ti4 Fe12 N16'
_cell_volume   304.48134520
_cell_formula_units_Z   4
loop_
 _symmetry_equiv_pos_site_id
 _symmetry_equiv_pos_as_xyz
  1  'x, y, z'
loop_
 _atom_site_type_symbol
 _atom_site_label
 _atom_site_symmetry_multiplicity
 _atom_site_fract_x
 _atom_site_fract_y
 _atom_site_fract_z
 _atom_site_occupancy
  Fe  Fe0  1  0.95039144  0.69071719  0.87455501  1
  Fe  Fe1  1  0.43470338  0.66037610  0.87788876  1
  Fe  Fe2  1  0.96740120  0.40226286  0.69229284  1
  Fe  Fe3  1  0.38038016  0.38466917  0.73686543  1
  Fe  Fe4  1  0.17414913  0.03842576  0.80880895  1
  Fe  Fe5  1  0.32695603  0.73339606  0.53710127  1
  Fe  Fe6  1  0.03104821  0.54272624  0.21871941  1
  Fe  Fe7  1  0.50908987  0.52784661  0.27250736  1
  Fe  Fe8  1  0.99688541  0.26522082  0.07653290  1
  Fe  Fe9  1  0.49943469  0.28899087  0.07447041  1
  Fe  Fe10  1  0.25634719  0.87531241  0.17317113  1
  Fe  Fe11  1  0.76329697  0.88458572  0.16941611  1
  Ti  Ti12  1  0.66536783  0.06095706  0.82169219  1
  Ti  Ti13  1  0.83713830  0.75327759  0.51956662  1
  Ti  Ti14  1  0.34972813  0.11134512  0.42597883  1
  Ti  Ti15  1  0.82449425  0.25286329  0.44784135  1
  N  N16  1  0.61101687  0.42194229  0.83522146  1
  N  N17  1  0.06761443  0.45389104  0.87888368  1
  N  N18  1  0.48291926  0.15618074  0.64390163  1
  N  N19  1  0.00375276  0.15554787  0.64059713  1
  N  N20  1  0.71686307  0.80472427  0.77609100  1
  N  N21  1  0.24066734  0.80916247  0.75916674  1
  N  N22  1  0.85483375  0.50122951  0.47691225  1
  N  N23  1  0.29902256  0.49424794  0.52462778  1
  N  N24  1  0.65817816  0.28881196  0.24152977  1
  N  N25  1  0.16629240  0.28698204  0.23051994  1
  N  N26  1  0.52078455  0.03343226  0.09894145  1
  N  N27  1  0.04512572  0.01658853  0.06807339  1
  N  N28  1  0.13995149  0.90150463  0.41831931  1
  N  N29  1  0.60209448  0.90038006  0.42027034  1
  N  N30  1  0.79382222  0.65692809  0.12904857  1
  N  N31  1  0.33024876  0.64547345  0.13048697  1
