# generated using pymatgen
data_TiMn3N4
_symmetry_space_group_name_H-M   'P 1'
_cell_length_a   5.90466323
_cell_length_b   6.46062362
_cell_length_c   7.69054427
_cell_angle_alpha   84.70591405
_cell_angle_beta   78.86861211
_cell_angle_gamma   75.94569532
_symmetry_Int_Tables_number   1
_chemical_formula_structural   TiMn3N4
_chemical_formula_sum   'Ti4 Mn12 N16'
_cell_volume   278.92373212
_cell_formula_units_Z   4
loop_
 _symmetry_equiv_pos_site_id
 _symmetry_equiv_pos_as_xyz
  1  'x, y, z'
loop_
 _atom_site_type_symbol
 _atom_site_label
 _atom_site_symmetry_multiplicity
 _atom_site_fract_x
 _atom_site_fract_y
 _atom_site_fract_z
 _atom_site_occupancy
  Mn  Mn0  1  0.11116735  0.74060056  0.91178827  1
  Mn  Mn1  1  0.54852529  0.62707012  0.97955266  1
  Mn  Mn2  1  0.99189562  0.40530032  0.70103609  1
  Mn  Mn3  1  0.51301224  0.44639878  0.65942951  1
  Mn  Mn4  1  0.29279138  0.08140519  0.79393041  1
  Mn  Mn5  1  0.21889061  0.78025705  0.58555775  1
  Mn  Mn6  1  0.97595734  0.58014215  0.26728868  1
  Mn  Mn7  1  0.45358257  0.58645493  0.30843926  1
  Mn  Mn8  1  0.93823640  0.30845165  0.02320380  1
  Mn  Mn9  1  0.41671703  0.27225533  0.08063277  1
  Mn  Mn10  1  0.23580165  0.94706976  0.19645219  1
  Mn  Mn11  1  0.70439558  0.93280642  0.17897262  1
  Ti  Ti12  1  0.78241221  0.06182872  0.81675273  1
  Ti  Ti13  1  0.70179408  0.79371919  0.56459812  1
  Ti  Ti14  1  0.33878972  0.19598293  0.44253509  1
  Ti  Ti15  1  0.84072226  0.20008773  0.41525021  1
  N  N16  1  0.68109610  0.36960720  0.88478663  1
  N  N17  1  0.20181755  0.37676961  0.87696726  1
  N  N18  1  0.56955369  0.13239722  0.62159892  1
  N  N19  1  0.06607821  0.10819857  0.62354551  1
  N  N20  1  0.91120001  0.74135212  0.74671661  1
  N  N21  1  0.40060260  0.74879116  0.76584890  1
  N  N22  1  0.80274497  0.49064669  0.50931659  1
  N  N23  1  0.25252188  0.50060623  0.53246493  1
  N  N24  1  0.60996895  0.27258652  0.24876240  1
  N  N25  1  0.12254436  0.26868496  0.23449889  1
  N  N26  1  0.48119666  0.99688078  0.99620554  1
  N  N27  1  0.97976022  0.00255023  0.02580807  1
  N  N28  1  0.93343576  0.87439890  0.34911038  1
  N  N29  1  0.42783464  0.87022962  0.38096302  1
  N  N30  1  0.73656003  0.63546036  0.14426498  1
  N  N31  1  0.25839304  0.65100906  0.13372119  1
