# generated using pymatgen
data_TiCr3N4
_symmetry_space_group_name_H-M   'P 1'
_cell_length_a   5.81336772
_cell_length_b   6.46702157
_cell_length_c   7.71848777
_cell_angle_alpha   84.79436301
_cell_angle_beta   79.97529549
_cell_angle_gamma   78.12792850
_symmetry_Int_Tables_number   1
_chemical_formula_structural   TiCr3N4
_chemical_formula_sum   'Ti4 Cr12 N16'
_cell_volume   279.18089669
_cell_formula_units_Z   4
loop_
 _symmetry_equiv_pos_site_id
 _symmetry_equiv_pos_as_xyz
  1  'x, y, z'
loop_
 _atom_site_type_symbol
 _atom_site_label
 _atom_site_symmetry_multiplicity
 _atom_site_fract_x
 _atom_site_fract_y
 _atom_site_fract_z
 _atom_site_occupancy
  Cr  Cr0  1  0.11101675  0.68084367  0.90189955  1
  Cr  Cr1  1  0.59020146  0.67153267  0.96280683  1
  Cr  Cr2  1  0.00196689  0.46838321  0.69171641  1
  Cr  Cr3  1  0.44432079  0.40750995  0.69414289  1
  Cr  Cr4  1  0.28525811  0.04933691  0.79121464  1
  Cr  Cr5  1  0.15279850  0.80662632  0.58816753  1
  Cr  Cr6  1  0.00693919  0.57852467  0.30601483  1
  Cr  Cr7  1  0.54120780  0.58335575  0.28700566  1
  Cr  Cr8  1  0.90997901  0.27019997  0.06568156  1
  Cr  Cr9  1  0.43725534  0.34563225  0.07427731  1
  Cr  Cr10  1  0.16858895  0.96018422  0.19144328  1
  Cr  Cr11  1  0.73721502  0.90796471  0.18632142  1
  Ti  Ti12  1  0.75564419  0.07009993  0.82103462  1
  Ti  Ti13  1  0.65474122  0.80147534  0.55483126  1
  Ti  Ti14  1  0.34398967  0.19102544  0.44322303  1
  Ti  Ti15  1  0.85015714  0.19999253  0.43302124  1
  N  N16  1  0.68652742  0.38382069  0.87058300  1
  N  N17  1  0.18278177  0.36845376  0.88633731  1
  N  N18  1  0.56524110  0.11891839  0.62247284  1
  N  N19  1  0.05721520  0.13228781  0.62783984  1
  N  N20  1  0.86608077  0.75174971  0.75794189  1
  N  N21  1  0.38985176  0.73945621  0.75577875  1
  N  N22  1  0.75200321  0.49940642  0.50554478  1
  N  N23  1  0.25495351  0.51368835  0.49803180  1
  N  N24  1  0.62820088  0.25752661  0.25018903  1
  N  N25  1  0.13433339  0.26133532  0.23600275  1
  N  N26  1  0.48819121  0.00114677  0.01086282  1
  N  N27  1  0.00337134  0.97990210  0.99606837  1
  N  N28  1  0.94282419  0.87134893  0.38046304  1
  N  N29  1  0.42559632  0.87517878  0.36993027  1
  N  N30  1  0.82899068  0.61403349  0.11453597  1
  N  N31  1  0.30255722  0.63905913  0.12461550  1
