# generated using pymatgen
data_TiV3N4
_symmetry_space_group_name_H-M   'P 1'
_cell_length_a   5.88535883
_cell_length_b   6.54374043
_cell_length_c   7.81234004
_cell_angle_alpha   85.08413558
_cell_angle_beta   79.47851955
_cell_angle_gamma   77.21143722
_symmetry_Int_Tables_number   1
_chemical_formula_structural   TiV3N4
_chemical_formula_sum   'Ti4 V12 N16'
_cell_volume   288.15237596
_cell_formula_units_Z   4
loop_
 _symmetry_equiv_pos_site_id
 _symmetry_equiv_pos_as_xyz
  1  'x, y, z'
loop_
 _atom_site_type_symbol
 _atom_site_label
 _atom_site_symmetry_multiplicity
 _atom_site_fract_x
 _atom_site_fract_y
 _atom_site_fract_z
 _atom_site_occupancy
  V  V0  1  0.09808739  0.68139696  0.91358492  1
  V  V1  1  0.59636771  0.66316290  0.95471263  1
  V  V2  1  0.98652576  0.45024232  0.68529770  1
  V  V3  1  0.44211277  0.43763549  0.68955853  1
  V  V4  1  0.27718651  0.08705347  0.81402366  1
  V  V5  1  0.14785159  0.79220033  0.57291188  1
  V  V6  1  0.05465967  0.57761103  0.31585491  1
  V  V7  1  0.53825835  0.58018598  0.29334880  1
  V  V8  1  0.87298533  0.32085452  0.06764038  1
  V  V9  1  0.41866813  0.29966173  0.07168933  1
  V  V10  1  0.23863327  0.93218772  0.18506048  1
  V  V11  1  0.70198707  0.93718956  0.18193588  1
  Ti  Ti12  1  0.78243950  0.06901150  0.81693337  1
  Ti  Ti13  1  0.65296231  0.80177787  0.56523689  1
  Ti  Ti14  1  0.34520968  0.18130941  0.43514560  1
  Ti  Ti15  1  0.84848282  0.18905051  0.43382856  1
  N  N16  1  0.68381307  0.37888509  0.86560945  1
  N  N17  1  0.18084831  0.37654780  0.88673108  1
  N  N18  1  0.56085403  0.12763309  0.62644655  1
  N  N19  1  0.06476519  0.12435223  0.62660679  1
  N  N20  1  0.86132040  0.75171215  0.75553196  1
  N  N21  1  0.37321507  0.75365105  0.75528548  1
  N  N22  1  0.75415143  0.49892443  0.49880986  1
  N  N23  1  0.26517701  0.49794020  0.49286860  1
  N  N24  1  0.62277415  0.25155870  0.25495138  1
  N  N25  1  0.12319477  0.25080546  0.24226577  1
  N  N26  1  0.49786143  0.99458452  0.99321063  1
  N  N27  1  0.00144562  0.99852099  0.00519981  1
  N  N28  1  0.93862293  0.87523575  0.37275794  1
  N  N29  1  0.43211692  0.87070561  0.38084579  1
  N  N30  1  0.82881897  0.62721847  0.12695594  1
  N  N31  1  0.30860284  0.62119318  0.11915947  1
