# generated using pymatgen
data_TiN
_symmetry_space_group_name_H-M   'P 1'
_cell_length_a   6.01076069
_cell_length_b   6.73340897
_cell_length_c   7.96093075
_cell_angle_alpha   85.24113380
_cell_angle_beta   79.07388831
_cell_angle_gamma   77.07224654
_symmetry_Int_Tables_number   1
_chemical_formula_structural   TiN
_chemical_formula_sum   'Ti16 N16'
_cell_volume   308.06543412
_cell_formula_units_Z   16
loop_
 _symmetry_equiv_pos_site_id
 _symmetry_equiv_pos_as_xyz
  1  'x, y, z'
loop_
 _atom_site_type_symbol
 _atom_site_label
 _atom_site_symmetry_multiplicity
 _atom_site_fract_x
 _atom_site_fract_y
 _atom_site_fract_z
 _atom_site_occupancy
  Ti  Ti0  1  0.09375995  0.68749029  0.93748672  1
  Ti  Ti1  1  0.59376086  0.68749250  0.93748468  1
  Ti  Ti2  1  0.96875292  0.43750489  0.68748763  1
  Ti  Ti3  1  0.46875377  0.43750496  0.68748838  1
  Ti  Ti4  1  0.28124517  0.06249600  0.81251549  1
  Ti  Ti5  1  0.15623754  0.81250802  0.56251451  1
  Ti  Ti6  1  0.03124850  0.56248817  0.31251189  1
  Ti  Ti7  1  0.53124923  0.56248681  0.31251059  1
  Ti  Ti8  1  0.90624109  0.31250541  0.06251318  1
  Ti  Ti9  1  0.40624133  0.31250675  0.06251432  1
  Ti  Ti10  1  0.21875664  0.93751160  0.18748310  1
  Ti  Ti11  1  0.71875289  0.93751324  0.18748596  1
  Ti  Ti12  1  0.78124191  0.06249303  0.81251783  1
  Ti  Ti13  1  0.65623928  0.81250551  0.56251464  1
  Ti  Ti14  1  0.34376014  0.18749626  0.43748433  1
  Ti  Ti15  1  0.84375887  0.18749647  0.43748550  1
  N  N16  1  0.68749736  0.37499890  0.87499797  1
  N  N17  1  0.18750253  0.37500407  0.87499984  1
  N  N18  1  0.56250259  0.12500346  0.62500101  1
  N  N19  1  0.06249662  0.12499936  0.62500062  1
  N  N20  1  0.87500287  0.75000237  0.75000159  1
  N  N21  1  0.37499615  0.74999799  0.75000043  1
  N  N22  1  0.74999726  0.49999832  0.50000160  1
  N  N23  1  0.25000126  0.50000189  0.50000363  1
  N  N24  1  0.62500016  0.24999798  0.25000071  1
  N  N25  1  0.12500104  0.24999727  0.25000009  1
  N  N26  1  0.50000182  0.00000049  0.00000000  1
  N  N27  1  0.99999995  0.99999477  0.99999879  1
  N  N28  1  0.93750201  0.87500192  0.37499781  1
  N  N29  1  0.43749885  0.87499818  0.37499874  1
  N  N30  1  0.81250058  0.62500306  0.12499990  1
  N  N31  1  0.31249886  0.62500009  0.12499856  1
