# generated using pymatgen
data_TiSi3N4
_symmetry_space_group_name_H-M   'P 1'
_cell_length_a   5.42732235
_cell_length_b   7.29728352
_cell_length_c   8.79347455
_cell_angle_alpha   77.79698131
_cell_angle_beta   87.40312843
_cell_angle_gamma   79.65471905
_symmetry_Int_Tables_number   1
_chemical_formula_structural   TiSi3N4
_chemical_formula_sum   'Ti4 Si12 N16'
_cell_volume   334.85049995
_cell_formula_units_Z   4
loop_
 _symmetry_equiv_pos_site_id
 _symmetry_equiv_pos_as_xyz
  1  'x, y, z'
loop_
 _atom_site_type_symbol
 _atom_site_label
 _atom_site_symmetry_multiplicity
 _atom_site_fract_x
 _atom_site_fract_y
 _atom_site_fract_z
 _atom_site_occupancy
  Si  Si0  1  0.03791204  0.67633523  0.00244277  1
  Si  Si1  1  0.54234424  0.63315829  0.88754377  1
  Si  Si2  1  0.05088244  0.46760429  0.71436713  1
  Si  Si3  1  0.43219292  0.52148690  0.56996663  1
  Si  Si4  1  0.30581742  0.06989655  0.75705512  1
  Si  Si5  1  0.18105784  0.84304388  0.57574122  1
  Si  Si6  1  0.97226726  0.56323842  0.36744646  1
  Si  Si7  1  0.51358258  0.59367343  0.25360979  1
  Si  Si8  1  0.87394732  0.31792671  0.13243223  1
  Si  Si9  1  0.37451873  0.32363081  0.00755790  1
  Si  Si10  1  0.26624075  0.98951419  0.10746423  1
  Si  Si11  1  0.77902087  0.93301100  0.23983956  1
  Ti  Ti12  1  0.76828435  0.05979325  0.83026825  1
  Ti  Ti13  1  0.69903545  0.80340373  0.62393858  1
  Ti  Ti14  1  0.38992970  0.15146722  0.41467522  1
  Ti  Ti15  1  0.84672210  0.16901411  0.50160339  1
  N  N16  1  0.68631496  0.35868457  0.96499739  1
  N  N17  1  0.14500394  0.48130274  0.89790813  1
  N  N18  1  0.55789719  0.10945071  0.63318758  1
  N  N19  1  0.02486717  0.22003451  0.70935151  1
  N  N20  1  0.78054568  0.77541875  0.87309487  1
  N  N21  1  0.30733243  0.82757144  0.77693055  1
  N  N22  1  0.71305441  0.46370027  0.44043224  1
  N  N23  1  0.28843645  0.47396763  0.38854796  1
  N  N24  1  0.72044266  0.16555786  0.26993514  1
  N  N25  1  0.19472992  0.21048660  0.16803130  1
  N  N26  1  0.40681422  0.09931042  0.93649180  1
  N  N27  1  0.98809368  0.91433409  0.07534517  1
  N  N28  1  0.92150406  0.78924183  0.39885039  1
  N  N29  1  0.49341998  0.84809727  0.23312562  1
  N  N30  1  0.86954257  0.54763542  0.17354531  1
  N  N31  1  0.36824467  0.59900791  0.07427280  1
