# generated using pymatgen
data_TiAl3N4
_symmetry_space_group_name_H-M   'P 1'
_cell_length_a   5.82583290
_cell_length_b   6.53542967
_cell_length_c   7.74022804
_cell_angle_alpha   85.06830482
_cell_angle_beta   79.18358937
_cell_angle_gamma   77.25874615
_symmetry_Int_Tables_number   1
_chemical_formula_structural   TiAl3N4
_chemical_formula_sum   'Ti4 Al12 N16'
_cell_volume   282.03439649
_cell_formula_units_Z   4
loop_
 _symmetry_equiv_pos_site_id
 _symmetry_equiv_pos_as_xyz
  1  'x, y, z'
loop_
 _atom_site_type_symbol
 _atom_site_label
 _atom_site_symmetry_multiplicity
 _atom_site_fract_x
 _atom_site_fract_y
 _atom_site_fract_z
 _atom_site_occupancy
  Al  Al0  1  0.09388232  0.68591491  0.94096092  1
  Al  Al1  1  0.59160641  0.68498273  0.94057535  1
  Al  Al2  1  0.96811888  0.44087342  0.68893072  1
  Al  Al3  1  0.46627485  0.44465388  0.68983071  1
  Al  Al4  1  0.27453456  0.06227809  0.82081866  1
  Al  Al5  1  0.16088863  0.80646919  0.56312638  1
  Al  Al6  1  0.03313519  0.55967514  0.31137029  1
  Al  Al7  1  0.53213034  0.56286912  0.31072281  1
  Al  Al8  1  0.90653357  0.31310606  0.06088877  1
  Al  Al9  1  0.40458338  0.31410172  0.06114823  1
  Al  Al10  1  0.21879899  0.93732449  0.18605333  1
  Al  Al11  1  0.72158099  0.93635164  0.18095797  1
  Ti  Ti12  1  0.77796675  0.05839574  0.79993827  1
  Ti  Ti13  1  0.65729726  0.82788666  0.56164618  1
  Ti  Ti14  1  0.35326902  0.17888653  0.44056156  1
  Ti  Ti15  1  0.84142700  0.18373137  0.44131431  1
  N  N16  1  0.68655521  0.38397555  0.87546783  1
  N  N17  1  0.18701726  0.37380751  0.87482260  1
  N  N18  1  0.54502699  0.14166106  0.63640724  1
  N  N19  1  0.06976832  0.11977002  0.63152079  1
  N  N20  1  0.88481821  0.73890894  0.75456113  1
  N  N21  1  0.36816702  0.75086935  0.75548942  1
  N  N22  1  0.75047902  0.49890518  0.50011552  1
  N  N23  1  0.24714081  0.50849561  0.50056517  1
  N  N24  1  0.62689217  0.25199277  0.23866604  1
  N  N25  1  0.12584751  0.25620970  0.23951457  1
  N  N26  1  0.49519729  0.99597323  0.00373467  1
  N  N27  1  0.00312212  0.99791739  0.00646239  1
  N  N28  1  0.94765516  0.86857711  0.36866085  1
  N  N29  1  0.43488996  0.86681741  0.36633104  1
  N  N30  1  0.81177809  0.62669389  0.12565878  1
  N  N31  1  0.31361676  0.62192461  0.12317748  1
