# generated using pymatgen
data_TiB3N4
_symmetry_space_group_name_H-M   'P 1'
_cell_length_a   5.37336810
_cell_length_b   6.49348362
_cell_length_c   7.57012069
_cell_angle_alpha   93.27972266
_cell_angle_beta   88.96553328
_cell_angle_gamma   78.99446807
_symmetry_Int_Tables_number   1
_chemical_formula_structural   TiB3N4
_chemical_formula_sum   'Ti4 B12 N16'
_cell_volume   258.74010686
_cell_formula_units_Z   4
loop_
 _symmetry_equiv_pos_site_id
 _symmetry_equiv_pos_as_xyz
  1  'x, y, z'
loop_
 _atom_site_type_symbol
 _atom_site_label
 _atom_site_symmetry_multiplicity
 _atom_site_fract_x
 _atom_site_fract_y
 _atom_site_fract_z
 _atom_site_occupancy
  B  B0  1  0.13873096  0.81203253  0.84652409  1
  B  B1  1  0.65358867  0.60828191  0.05909064  1
  B  B2  1  0.92155362  0.53288329  0.81527464  1
  B  B3  1  0.45956482  0.40570511  0.79044068  1
  B  B4  1  0.20694086  0.21851336  0.72501459  1
  B  B5  1  0.15140798  0.67988403  0.60427852  1
  B  B6  1  0.91070947  0.62036398  0.33634583  1
  B  B7  1  0.33185577  0.64847393  0.30741025  1
  B  B8  1  0.98179433  0.30515826  0.14650750  1
  B  B9  1  0.48097596  0.30634621  0.15389822  1
  B  B10  1  0.33133707  0.95080658  0.12752988  1
  B  B11  1  0.81770312  0.93676837  0.14633741  1
  Ti  Ti12  1  0.77470147  0.09325054  0.85422708  1
  Ti  Ti13  1  0.61827959  0.79418760  0.53966472  1
  Ti  Ti14  1  0.25103537  0.15828739  0.42256451  1
  Ti  Ti15  1  0.74979703  0.20331045  0.45130068  1
  N  N16  1  0.69011824  0.45702356  0.86545508  1
  N  N17  1  0.18216456  0.41278763  0.83042681  1
  N  N18  1  0.48786208  0.18422343  0.66757314  1
  N  N19  1  0.00982553  0.14150483  0.63916595  1
  N  N20  1  0.91743283  0.73931138  0.73595522  1
  N  N21  1  0.33648375  0.76093090  0.70768580  1
  N  N22  1  0.71598634  0.52190638  0.45652667  1
  N  N23  1  0.16774109  0.56403460  0.43394831  1
  N  N24  1  0.75811656  0.18575846  0.14343429  1
  N  N25  1  0.25925105  0.19750200  0.15407154  1
  N  N26  1  0.60338333  0.85801513  0.04446317  1
  N  N27  1  0.09467258  0.88966946  0.02451143  1
  N  N28  1  0.82447538  0.87642397  0.34278296  1
  N  N29  1  0.32640845  0.87480836  0.32559259  1
  N  N30  1  0.90503461  0.53049535  0.15013789  1
  N  N31  1  0.44106754  0.53135104  0.15185995  1
