# generated using pymatgen
data_AlBN2
_symmetry_space_group_name_H-M   'P 1'
_cell_length_a   7.51910594
_cell_length_b   7.25318861
_cell_length_c   7.27213579
_cell_angle_alpha   133.52438778
_cell_angle_beta   102.36006999
_cell_angle_gamma   95.23719793
_symmetry_Int_Tables_number   1
_chemical_formula_structural   AlBN2
_chemical_formula_sum   'Al8 B8 N16'
_cell_volume   264.47289839
_cell_formula_units_Z   8
loop_
 _symmetry_equiv_pos_site_id
 _symmetry_equiv_pos_as_xyz
  1  'x, y, z'
loop_
 _atom_site_type_symbol
 _atom_site_label
 _atom_site_symmetry_multiplicity
 _atom_site_fract_x
 _atom_site_fract_y
 _atom_site_fract_z
 _atom_site_occupancy
  Al  Al0  1  0.65496691  0.67290874  0.49702190  1
  Al  Al1  1  0.19166730  0.17004425  0.51877647  1
  Al  Al2  1  0.90891649  0.17330758  0.74711959  1
  Al  Al3  1  0.42467907  0.16462574  0.25136418  1
  Al  Al4  1  0.10263665  0.83471285  0.74799916  1
  Al  Al5  1  0.83513850  0.82519073  0.01200923  1
  Al  Al6  1  0.08947534  0.35256975  0.25495855  1
  Al  Al7  1  0.83149276  0.32702283  0.49373482  1
  N  N8  1  0.46041987  0.66729485  0.29055969  1
  N  N9  1  0.99270231  0.16909457  0.32065393  1
  N  N10  1  0.27140640  0.68897125  0.57527111  1
  N  N11  1  0.00267676  0.66471910  0.83486807  1
  N  N12  1  0.68454456  0.14021736  0.53615272  1
  N  N13  1  0.47249131  0.16838723  0.80200122  1
  N  N14  1  0.70327751  0.63832582  0.06529400  1
  N  N15  1  0.24184628  0.19362582  0.05561381  1
  N  N16  1  0.89569819  0.81374378  0.52754985  1
  N  N17  1  0.42594525  0.38105281  0.60505240  1
  N  N18  1  0.63316126  0.85853891  0.83470588  1
  N  N19  1  0.39099467  0.80113721  0.03847666  1
  N  N20  1  0.16142020  0.36262521  0.84758203  1
  N  N21  1  0.86061481  0.33839547  0.06346385  1
  N  N22  1  0.17247405  0.81369617  0.29757983  1
  N  N23  1  0.64487338  0.32108264  0.27664066  1
  B  B24  1  0.42852575  0.68040563  0.76123381  1
  B  B25  1  0.17965611  0.66157944  0.00870306  1
  B  B26  1  0.65064730  0.16804419  0.99284815  1
  B  B27  1  0.85615253  0.62297902  0.22678686  1
  B  B28  1  0.56957357  0.33204154  0.75381226  1
  B  B29  1  0.55496743  0.81526227  0.23369337  1
  B  B30  1  0.32993844  0.35062093  0.00508735  1
  B  B31  1  0.33701905  0.82777631  0.48338554  1
