# generated using pymatgen
data_AlSiN2
_symmetry_space_group_name_H-M   'P 1'
_cell_length_a   8.04782429
_cell_length_b   7.95787580
_cell_length_c   7.80233061
_cell_angle_alpha   134.13049592
_cell_angle_beta   98.42668734
_cell_angle_gamma   95.40687513
_symmetry_Int_Tables_number   1
_chemical_formula_structural   AlSiN2
_chemical_formula_sum   'Al8 Si8 N16'
_cell_volume   340.95867377
_cell_formula_units_Z   8
loop_
 _symmetry_equiv_pos_site_id
 _symmetry_equiv_pos_as_xyz
  1  'x, y, z'
loop_
 _atom_site_type_symbol
 _atom_site_label
 _atom_site_symmetry_multiplicity
 _atom_site_fract_x
 _atom_site_fract_y
 _atom_site_fract_z
 _atom_site_occupancy
  Al  Al0  1  0.67168420  0.68705740  0.51792638  1
  Al  Al1  1  0.17175892  0.12532918  0.47238334  1
  Al  Al2  1  0.88339394  0.15146792  0.73816926  1
  Al  Al3  1  0.43312512  0.19035260  0.24148133  1
  Al  Al4  1  0.08636357  0.84593562  0.74632601  1
  Al  Al5  1  0.84397184  0.84900341  0.02367859  1
  Al  Al6  1  0.09786020  0.34986518  0.26716902  1
  Al  Al7  1  0.83021009  0.33351630  0.50541974  1
  N  N8  1  0.49000186  0.70867729  0.35067360  1
  N  N9  1  0.98994495  0.17087350  0.31828477  1
  N  N10  1  0.24515629  0.66851996  0.58021178  1
  N  N11  1  0.96821006  0.65461867  0.79586855  1
  N  N12  1  0.70070522  0.17188545  0.56931049  1
  N  N13  1  0.52478807  0.15309915  0.85374995  1
  N  N14  1  0.73848825  0.70702583  0.11664187  1
  N  N15  1  0.23414359  0.17644857  0.05148288  1
  N  N16  1  0.89959632  0.82619831  0.54320386  1
  N  N17  1  0.39929358  0.35599074  0.55457007  1
  N  N18  1  0.70721575  0.89083398  0.85471731  1
  N  N19  1  0.46630239  0.88754399  0.09151566  1
  N  N20  1  0.09461712  0.29223691  0.77089281  1
  N  N21  1  0.89676413  0.35867920  0.08703656  1
  N  N22  1  0.10638899  0.76864842  0.22492011  1
  N  N23  1  0.66425822  0.35710098  0.32742294  1
  Si  Si24  1  0.34479064  0.63252800  0.77572604  1
  Si  Si25  1  0.12794893  0.59395085  0.91888198  1
  Si  Si26  1  0.69566784  0.18060083  0.03108527  1
  Si  Si27  1  0.90935606  0.66570032  0.23991394  1
  Si  Si28  1  0.50095039  0.25556037  0.69000382  1
  Si  Si29  1  0.57916379  0.85163174  0.26965905  1
  Si  Si30  1  0.30342484  0.25086174  0.88629573  1
  Si  Si31  1  0.35445484  0.88825760  0.54537727  1
