# generated using pymatgen
data_TiAlN2
_symmetry_space_group_name_H-M   'P 1'
_cell_length_a   8.23840746
_cell_length_b   8.24546711
_cell_length_c   8.21567997
_cell_angle_alpha   134.02714055
_cell_angle_beta   102.11228709
_cell_angle_gamma   95.37132113
_symmetry_Int_Tables_number   1
_chemical_formula_structural   TiAlN2
_chemical_formula_sum   'Ti8 Al8 N16'
_cell_volume   368.87968771
_cell_formula_units_Z   8
loop_
 _symmetry_equiv_pos_site_id
 _symmetry_equiv_pos_as_xyz
  1  'x, y, z'
loop_
 _atom_site_type_symbol
 _atom_site_label
 _atom_site_symmetry_multiplicity
 _atom_site_fract_x
 _atom_site_fract_y
 _atom_site_fract_z
 _atom_site_occupancy
  Al  Al0  1  0.69013581  0.66719633  0.52206530  1
  Al  Al1  1  0.15597314  0.16609452  0.48912338  1
  Al  Al2  1  0.91169804  0.15613391  0.73943751  1
  Al  Al3  1  0.41546030  0.17799293  0.24796000  1
  Al  Al4  1  0.08980525  0.83630480  0.75718715  1
  Al  Al5  1  0.84484859  0.83774635  0.00817229  1
  Al  Al6  1  0.08422219  0.33093043  0.24758471  1
  Al  Al7  1  0.84042572  0.33650768  0.50883387  1
  N  N8  1  0.50953584  0.66536428  0.34426993  1
  N  N9  1  0.97302024  0.16948295  0.30637303  1
  N  N10  1  0.21875680  0.65798098  0.55323878  1
  N  N11  1  0.97294469  0.66864104  0.80430677  1
  N  N12  1  0.73159111  0.17254739  0.56488809  1
  N  N13  1  0.46896773  0.16224530  0.81452979  1
  N  N14  1  0.72701544  0.67505310  0.06179923  1
  N  N15  1  0.22298378  0.16716474  0.06080360  1
  N  N16  1  0.90097926  0.83721289  0.57103487  1
  N  N17  1  0.37923221  0.32131782  0.53935212  1
  N  N18  1  0.65806615  0.83482033  0.82043229  1
  N  N19  1  0.39354719  0.85700905  0.05659072  1
  N  N20  1  0.12431213  0.31187632  0.77976505  1
  N  N21  1  0.89694356  0.31967407  0.05001835  1
  N  N22  1  0.12451015  0.84248707  0.30590609  1
  N  N23  1  0.64959464  0.33691592  0.32576996  1
  Ti  Ti24  1  0.41970506  0.66842504  0.74741368  1
  Ti  Ti25  1  0.18489842  0.66436785  0.01276862  1
  Ti  Ti26  1  0.66426873  0.16619969  0.00177936  1
  Ti  Ti27  1  0.90670328  0.66011334  0.24298862  1
  Ti  Ti28  1  0.57025336  0.32441696  0.74192102  1
  Ti  Ti29  1  0.56201846  0.82327441  0.24695196  1
  Ti  Ti30  1  0.33253194  0.36253257  0.01530122  1
  Ti  Ti31  1  0.33505080  0.82196996  0.47143263  1
