# generated using pymatgen
data_AlVN2
_symmetry_space_group_name_H-M   'P 1'
_cell_length_a   7.91075453
_cell_length_b   7.91116653
_cell_length_c   7.90585702
_cell_angle_alpha   130.21013806
_cell_angle_beta   116.38279362
_cell_angle_gamma   84.87723248
_symmetry_Int_Tables_number   1
_chemical_formula_structural   AlVN2
_chemical_formula_sum   'Al8 V8 N16'
_cell_volume   324.07052265
_cell_formula_units_Z   8
loop_
 _symmetry_equiv_pos_site_id
 _symmetry_equiv_pos_as_xyz
  1  'x, y, z'
loop_
 _atom_site_type_symbol
 _atom_site_label
 _atom_site_symmetry_multiplicity
 _atom_site_fract_x
 _atom_site_fract_y
 _atom_site_fract_z
 _atom_site_occupancy
  Al  Al0  1  0.70366898  0.66612453  0.53389277  1
  Al  Al1  1  0.19234632  0.16975068  0.52597002  1
  Al  Al2  1  0.94344742  0.16134620  0.76795244  1
  Al  Al3  1  0.45337397  0.17550058  0.29205553  1
  Al  Al4  1  0.11460176  0.83317166  0.78337686  1
  Al  Al5  1  0.87224760  0.84222119  0.02998550  1
  Al  Al6  1  0.10984151  0.33144519  0.27668940  1
  Al  Al7  1  0.86636329  0.33622986  0.52991465  1
  N  N8  1  0.46221040  0.66285305  0.29665166  1
  N  N9  1  0.94972946  0.16940494  0.28115528  1
  N  N10  1  0.18853313  0.65863969  0.53010473  1
  N  N11  1  0.94812996  0.66831998  0.77868104  1
  N  N12  1  0.70258887  0.17261935  0.53004029  1
  N  N13  1  0.42640192  0.16554952  0.76316494  1
  N  N14  1  0.70973531  0.67992702  0.03020762  1
  N  N15  1  0.19416194  0.16419487  0.03000264  1
  N  N16  1  0.86372174  0.83487330  0.53466081  1
  N  N17  1  0.36030840  0.32932672  0.52548656  1
  N  N18  1  0.61478173  0.82981694  0.78051298  1
  N  N19  1  0.36105420  0.84700141  0.03941220  1
  N  N20  1  0.10593546  0.32380004  0.76890550  1
  N  N21  1  0.86766489  0.32194346  0.02073541  1
  N  N22  1  0.10931927  0.83428115  0.27949916  1
  N  N23  1  0.61491671  0.33671689  0.29081387  1
  V  V24  1  0.46026332  0.66921711  0.80150414  1
  V  V25  1  0.22551047  0.66582512  0.05744216  1
  V  V26  1  0.66850775  0.16803563  0.00246554  1
  V  V27  1  0.92775860  0.65899679  0.25870933  1
  V  V28  1  0.61601423  0.33532352  0.79734459  1
  V  V29  1  0.59781684  0.81866356  0.26282426  1
  V  V30  1  0.36594563  0.33578969  0.02984745  1
  V  V31  1  0.36309889  0.83309039  0.52999065  1
