# generated using pymatgen
data_MnAlN2
_symmetry_space_group_name_H-M   'P 1'
_cell_length_a   7.89363463
_cell_length_b   7.94772792
_cell_length_c   7.98159330
_cell_angle_alpha   134.23556332
_cell_angle_beta   103.12429127
_cell_angle_gamma   94.44395849
_symmetry_Int_Tables_number   1
_chemical_formula_structural   MnAlN2
_chemical_formula_sum   'Mn8 Al8 N16'
_cell_volume   328.82488300
_cell_formula_units_Z   8
loop_
 _symmetry_equiv_pos_site_id
 _symmetry_equiv_pos_as_xyz
  1  'x, y, z'
loop_
 _atom_site_type_symbol
 _atom_site_label
 _atom_site_symmetry_multiplicity
 _atom_site_fract_x
 _atom_site_fract_y
 _atom_site_fract_z
 _atom_site_occupancy
  Al  Al0  1  0.67475122  0.66621160  0.50296363  1
  Al  Al1  1  0.17473217  0.16973297  0.50190237  1
  Al  Al2  1  0.90891457  0.15371105  0.73973151  1
  Al  Al3  1  0.42461622  0.17926030  0.25984912  1
  Al  Al4  1  0.09655545  0.83493976  0.75832038  1
  Al  Al5  1  0.84598195  0.84301474  0.00550083  1
  Al  Al6  1  0.08765874  0.33792530  0.25416655  1
  Al  Al7  1  0.84146354  0.33705012  0.50721667  1
  N  N8  1  0.47949231  0.67080116  0.31761864  1
  N  N9  1  0.98491600  0.17341607  0.31656226  1
  N  N10  1  0.24158584  0.67013271  0.56426373  1
  N  N11  1  0.98670011  0.66906779  0.81740434  1
  N  N12  1  0.71879003  0.15893298  0.55062841  1
  N  N13  1  0.44135185  0.14609382  0.78513347  1
  N  N14  1  0.71622894  0.67767618  0.05413630  1
  N  N15  1  0.22952586  0.17209553  0.06538259  1
  N  N16  1  0.89983764  0.82921953  0.56273233  1
  N  N17  1  0.40471471  0.34004471  0.57208081  1
  N  N18  1  0.64778643  0.85119011  0.81896926  1
  N  N19  1  0.38960081  0.83399615  0.05069506  1
  N  N20  1  0.13502330  0.32105976  0.79697366  1
  N  N21  1  0.88714245  0.32643182  0.05372501  1
  N  N22  1  0.11784372  0.81978043  0.29658988  1
  N  N23  1  0.64943083  0.33504089  0.31320340  1
  Mn  Mn24  1  0.43058845  0.67508966  0.76155361  1
  Mn  Mn25  1  0.20361699  0.66407638  0.03947237  1
  Mn  Mn26  1  0.64583965  0.17767350  0.98203511  1
  Mn  Mn27  1  0.88574794  0.64504326  0.22047531  1
  Mn  Mn28  1  0.59505302  0.33143479  0.78102217  1
  Mn  Mn29  1  0.56435268  0.82157457  0.23814768  1
  Mn  Mn30  1  0.33223415  0.35122661  0.00373400  1
  Mn  Mn31  1  0.31792243  0.81705580  0.46780957  1
