# generated using pymatgen
data_AlCrN2
_symmetry_space_group_name_H-M   'P 1'
_cell_length_a   7.85603416
_cell_length_b   7.73498454
_cell_length_c   7.85266237
_cell_angle_alpha   129.12154105
_cell_angle_beta   117.03255438
_cell_angle_gamma   85.31976900
_symmetry_Int_Tables_number   1
_chemical_formula_structural   AlCrN2
_chemical_formula_sum   'Al8 Cr8 N16'
_cell_volume   314.88394751
_cell_formula_units_Z   8
loop_
 _symmetry_equiv_pos_site_id
 _symmetry_equiv_pos_as_xyz
  1  'x, y, z'
loop_
 _atom_site_type_symbol
 _atom_site_label
 _atom_site_symmetry_multiplicity
 _atom_site_fract_x
 _atom_site_fract_y
 _atom_site_fract_z
 _atom_site_occupancy
  Al  Al0  1  0.70508240  0.66880586  0.53303799  1
  Al  Al1  1  0.19287329  0.16262182  0.52335014  1
  Al  Al2  1  0.94192748  0.16102692  0.76764258  1
  Al  Al3  1  0.45294319  0.17500593  0.29475119  1
  Al  Al4  1  0.11551162  0.83486226  0.78295809  1
  Al  Al5  1  0.87891835  0.83671196  0.03155605  1
  Al  Al6  1  0.11054659  0.32728661  0.27548303  1
  Al  Al7  1  0.86574138  0.33372323  0.52986021  1
  N  N8  1  0.45666424  0.68692766  0.31533554  1
  N  N9  1  0.94477764  0.16641898  0.28073746  1
  N  N10  1  0.17916307  0.65492146  0.52470883  1
  N  N11  1  0.95209157  0.66757342  0.78156442  1
  N  N12  1  0.69580300  0.16774615  0.53131081  1
  N  N13  1  0.42715439  0.16963240  0.77417666  1
  N  N14  1  0.69559704  0.66827053  0.01163548  1
  N  N15  1  0.19371421  0.16616290  0.03093147  1
  N  N16  1  0.85913057  0.83253814  0.52349565  1
  N  N17  1  0.36384155  0.33173984  0.52982503  1
  N  N18  1  0.63086096  0.84233019  0.78357783  1
  N  N19  1  0.36835191  0.83821358  0.03078222  1
  N  N20  1  0.11117033  0.32274235  0.76882547  1
  N  N21  1  0.86160004  0.31427353  0.01447699  1
  N  N22  1  0.11391222  0.82213300  0.27635915  1
  N  N23  1  0.61168711  0.34135006  0.28958573  1
  Cr  Cr24  1  0.45004852  0.68777670  0.78136369  1
  Cr  Cr25  1  0.23770968  0.65837970  0.05209196  1
  Cr  Cr26  1  0.66244304  0.17345606  0.00767560  1
  Cr  Cr27  1  0.91217025  0.64731932  0.24617474  1
  Cr  Cr28  1  0.62130104  0.34330286  0.81347874  1
  Cr  Cr29  1  0.60048761  0.80164131  0.24384595  1
  Cr  Cr30  1  0.37079399  0.35678042  0.03990491  1
  Cr  Cr31  1  0.37598173  0.83832483  0.56949637  1
