# generated using pymatgen
data_AlFeN2
_symmetry_space_group_name_H-M   'P 1'
_cell_length_a   7.90661312
_cell_length_b   7.92379546
_cell_length_c   7.96503810
_cell_angle_alpha   134.40285686
_cell_angle_beta   101.93249679
_cell_angle_gamma   95.43508509
_symmetry_Int_Tables_number   1
_chemical_formula_structural   AlFeN2
_chemical_formula_sum   'Al8 Fe8 N16'
_cell_volume   327.71688455
_cell_formula_units_Z   8
loop_
 _symmetry_equiv_pos_site_id
 _symmetry_equiv_pos_as_xyz
  1  'x, y, z'
loop_
 _atom_site_type_symbol
 _atom_site_label
 _atom_site_symmetry_multiplicity
 _atom_site_fract_x
 _atom_site_fract_y
 _atom_site_fract_z
 _atom_site_occupancy
  Al  Al0  1  0.67656609  0.66172208  0.50037736  1
  Al  Al1  1  0.17224125  0.17486329  0.50645453  1
  Al  Al2  1  0.90576706  0.15962295  0.74180076  1
  Al  Al3  1  0.42052483  0.17278527  0.24920067  1
  Al  Al4  1  0.09343361  0.83936458  0.75607729  1
  Al  Al5  1  0.84045242  0.83706943  0.00768066  1
  Al  Al6  1  0.08748267  0.33652474  0.25346935  1
  Al  Al7  1  0.83526127  0.33039623  0.50117009  1
  N  N8  1  0.48392573  0.66809105  0.31903128  1
  N  N9  1  0.98297437  0.16913543  0.31599966  1
  N  N10  1  0.23751207  0.67088503  0.56327027  1
  N  N11  1  0.97927756  0.66737229  0.81167450  1
  N  N12  1  0.71518093  0.15849760  0.55187770  1
  N  N13  1  0.45662751  0.16299510  0.80303285  1
  N  N14  1  0.72332355  0.67110035  0.07029626  1
  N  N15  1  0.22972576  0.17315113  0.06510218  1
  N  N16  1  0.90009417  0.83375524  0.56355878  1
  N  N17  1  0.40057546  0.33753343  0.56424034  1
  N  N18  1  0.65018098  0.83985298  0.81641545  1
  N  N19  1  0.38496930  0.82087556  0.04207508  1
  N  N20  1  0.13580279  0.32859610  0.80494411  1
  N  N21  1  0.88693207  0.32808226  0.05835350  1
  N  N22  1  0.13616596  0.82672064  0.30781192  1
  N  N23  1  0.64947226  0.32846170  0.30789061  1
  Fe  Fe24  1  0.42482719  0.67579477  0.75927687  1
  Fe  Fe25  1  0.17743518  0.66806522  0.01817866  1
  Fe  Fe26  1  0.65003800  0.16171926  0.97582470  1
  Fe  Fe27  1  0.91014626  0.65738843  0.23519186  1
  Fe  Fe28  1  0.57865518  0.33543439  0.76594435  1
  Fe  Fe29  1  0.55952713  0.81376182  0.23095891  1
  Fe  Fe30  1  0.33867729  0.35731522  0.00394982  1
  Fe  Fe31  1  0.33622413  0.83306645  0.48886961  1
