# generated using pymatgen
data_AlCoN2
_symmetry_space_group_name_H-M   'P 1'
_cell_length_a   7.92273881
_cell_length_b   7.96384300
_cell_length_c   7.96632808
_cell_angle_alpha   134.62636455
_cell_angle_beta   101.27097232
_cell_angle_gamma   96.51006179
_symmetry_Int_Tables_number   1
_chemical_formula_structural   AlCoN2
_chemical_formula_sum   'Al8 Co8 N16'
_cell_volume   327.42320654
_cell_formula_units_Z   8
loop_
 _symmetry_equiv_pos_site_id
 _symmetry_equiv_pos_as_xyz
  1  'x, y, z'
loop_
 _atom_site_type_symbol
 _atom_site_label
 _atom_site_symmetry_multiplicity
 _atom_site_fract_x
 _atom_site_fract_y
 _atom_site_fract_z
 _atom_site_occupancy
  Al  Al0  1  0.67837900  0.65921402  0.50028844  1
  Al  Al1  1  0.17130595  0.18474788  0.51276557  1
  Al  Al2  1  0.90477638  0.15774419  0.73978571  1
  Al  Al3  1  0.42002116  0.17621856  0.25103187  1
  Al  Al4  1  0.09474150  0.84086378  0.75353129  1
  Al  Al5  1  0.84031371  0.83693901  0.01013840  1
  Al  Al6  1  0.08871905  0.33787278  0.25237703  1
  Al  Al7  1  0.83389698  0.32977487  0.50229604  1
  N  N8  1  0.48629793  0.66306626  0.31981478  1
  N  N9  1  0.98322532  0.17324373  0.31922155  1
  N  N10  1  0.23930116  0.67550057  0.56175870  1
  N  N11  1  0.98091817  0.67138595  0.81550578  1
  N  N12  1  0.71265348  0.15486777  0.55090670  1
  N  N13  1  0.46285670  0.15505948  0.80385084  1
  N  N14  1  0.72271000  0.66961638  0.07227809  1
  N  N15  1  0.23214263  0.17573788  0.06616724  1
  N  N16  1  0.90117076  0.83339701  0.56242396  1
  N  N17  1  0.40174959  0.34399622  0.56740778  1
  N  N18  1  0.65277848  0.83507262  0.81522776  1
  N  N19  1  0.38368558  0.82343177  0.04246404  1
  N  N20  1  0.13681736  0.33442143  0.81030382  1
  N  N21  1  0.89064698  0.32251149  0.05539761  1
  N  N22  1  0.12909300  0.83493575  0.31345185  1
  N  N23  1  0.65147194  0.32915731  0.31201303  1
  Co  Co24  1  0.42269490  0.68227108  0.76086468  1
  Co  Co25  1  0.17696330  0.68090900  0.02685079  1
  Co  Co26  1  0.65026084  0.15200929  0.97465050  1
  Co  Co27  1  0.90897526  0.65010566  0.23012773  1
  Co  Co28  1  0.57275700  0.32893447  0.76181933  1
  Co  Co29  1  0.55027318  0.80025164  0.22192470  1
  Co  Co30  1  0.34233121  0.35440359  0.99892630  1
  Co  Co31  1  0.33607152  0.83233859  0.47442808  1
