# generated using pymatgen
data_AlNiN2
_symmetry_space_group_name_H-M   'P 1'
_cell_length_a   7.90854072
_cell_length_b   8.04280880
_cell_length_c   8.09954631
_cell_angle_alpha   134.89750918
_cell_angle_beta   101.04200899
_cell_angle_gamma   95.92315269
_symmetry_Int_Tables_number   1
_chemical_formula_structural   AlNiN2
_chemical_formula_sum   'Al8 Ni8 N16'
_cell_volume   336.47462116
_cell_formula_units_Z   8
loop_
 _symmetry_equiv_pos_site_id
 _symmetry_equiv_pos_as_xyz
  1  'x, y, z'
loop_
 _atom_site_type_symbol
 _atom_site_label
 _atom_site_symmetry_multiplicity
 _atom_site_fract_x
 _atom_site_fract_y
 _atom_site_fract_z
 _atom_site_occupancy
  Al  Al0  1  0.66818129  0.66609511  0.50066298  1
  Al  Al1  1  0.16413955  0.17595987  0.50401012  1
  Al  Al2  1  0.90864171  0.16611872  0.74933136  1
  Al  Al3  1  0.41949712  0.17486427  0.25011215  1
  Al  Al4  1  0.08813720  0.84195815  0.75480806  1
  Al  Al5  1  0.83455129  0.83928911  0.00660955  1
  Al  Al6  1  0.08729052  0.33530815  0.25187691  1
  Al  Al7  1  0.83152812  0.33396673  0.50306901  1
  N  N8  1  0.47359698  0.65841067  0.30843230  1
  N  N9  1  0.97831463  0.17033951  0.31507296  1
  N  N10  1  0.23100527  0.66728356  0.56395077  1
  N  N11  1  0.97289561  0.67213705  0.80939542  1
  N  N12  1  0.71988217  0.16102258  0.55678073  1
  N  N13  1  0.48341997  0.14766804  0.79496812  1
  N  N14  1  0.73421918  0.66408680  0.06632343  1
  N  N15  1  0.23184830  0.16939937  0.06400439  1
  N  N16  1  0.89685890  0.84111685  0.57383484  1
  N  N17  1  0.39204308  0.33153354  0.55340268  1
  N  N18  1  0.64629853  0.83457847  0.81340463  1
  N  N19  1  0.39108355  0.83301652  0.06073744  1
  N  N20  1  0.13994124  0.33136442  0.80734740  1
  N  N21  1  0.89485114  0.33082790  0.06255409  1
  N  N22  1  0.14024050  0.83122437  0.30139109  1
  N  N23  1  0.64994730  0.34015971  0.32360097  1
  Ni  Ni24  1  0.41617990  0.67327770  0.76162199  1
  Ni  Ni25  1  0.16752229  0.67063222  0.00008626  1
  Ni  Ni26  1  0.66002472  0.16668499  0.99557065  1
  Ni  Ni27  1  0.92186739  0.66786932  0.24936023  1
  Ni  Ni28  1  0.56859878  0.33471414  0.75326973  1
  Ni  Ni29  1  0.57226997  0.81180447  0.23262032  1
  Ni  Ni30  1  0.34755092  0.32649387  0.98098839  1
  Ni  Ni31  1  0.32757288  0.83079380  0.49080104  1
