# generated using pymatgen
data_YAlN2
_symmetry_space_group_name_H-M   'P 1'
_cell_length_a   8.82360924
_cell_length_b   8.72858547
_cell_length_c   8.75713595
_cell_angle_alpha   132.76176997
_cell_angle_beta   105.55916237
_cell_angle_gamma   93.25452775
_symmetry_Int_Tables_number   1
_chemical_formula_structural   YAlN2
_chemical_formula_sum   'Y8 Al8 N16'
_cell_volume   448.99300348
_cell_formula_units_Z   8
loop_
 _symmetry_equiv_pos_site_id
 _symmetry_equiv_pos_as_xyz
  1  'x, y, z'
loop_
 _atom_site_type_symbol
 _atom_site_label
 _atom_site_symmetry_multiplicity
 _atom_site_fract_x
 _atom_site_fract_y
 _atom_site_fract_z
 _atom_site_occupancy
  Al  Al0  1  0.67176902  0.66548328  0.51727767  1
  Al  Al1  1  0.14836414  0.16119279  0.47976526  1
  Al  Al2  1  0.93330347  0.16567064  0.74824387  1
  Al  Al3  1  0.39932691  0.16116362  0.25324384  1
  Al  Al4  1  0.05557097  0.83054882  0.74675231  1
  Al  Al5  1  0.83251915  0.82890582  0.98356209  1
  Al  Al6  1  0.08363048  0.31685816  0.24289256  1
  Al  Al7  1  0.82699090  0.34442611  0.50626355  1
  N  N8  1  0.49219306  0.66215190  0.32950126  1
  N  N9  1  0.95191787  0.16761338  0.28782018  1
  N  N10  1  0.17107291  0.65415447  0.53917858  1
  N  N11  1  0.94621157  0.66422866  0.77892789  1
  N  N12  1  0.77381108  0.19866954  0.58360469  1
  N  N13  1  0.50409270  0.18076167  0.83337334  1
  N  N14  1  0.74242578  0.68477529  0.04502024  1
  N  N15  1  0.20235745  0.12931607  0.05698485  1
  N  N16  1  0.87390478  0.84674281  0.57698660  1
  N  N17  1  0.35259980  0.30548796  0.51953596  1
  N  N18  1  0.64916084  0.81608957  0.79263010  1
  N  N19  1  0.40403879  0.86986983  0.09192419  1
  N  N20  1  0.13476095  0.29230675  0.76284640  1
  N  N21  1  0.93330979  0.32075919  0.03948567  1
  N  N22  1  0.14832894  0.86973618  0.31903239  1
  N  N23  1  0.62445261  0.34613768  0.34269736  1
  Y  Y24  1  0.40793562  0.66809094  0.75025026  1
  Y  Y25  1  0.15889567  0.66124635  0.98505978  1
  Y  Y26  1  0.70817402  0.17615635  0.03903582  1
  Y  Y27  1  0.93853727  0.67212627  0.26931199  1
  Y  Y28  1  0.59297409  0.33341374  0.73776863  1
  Y  Y29  1  0.61554190  0.84730228  0.27706469  1
  Y  Y30  1  0.33883056  0.31609335  0.00883180  1
  Y  Y31  1  0.34299693  0.84252051  0.51512618  1
