# generated using pymatgen
data_ZrAlN2
_symmetry_space_group_name_H-M   'P 1'
_cell_length_a   8.56609096
_cell_length_b   8.55505633
_cell_length_c   8.42045024
_cell_angle_alpha   132.92870043
_cell_angle_beta   102.90285636
_cell_angle_gamma   95.52923399
_symmetry_Int_Tables_number   1
_chemical_formula_structural   ZrAlN2
_chemical_formula_sum   'Zr8 Al8 N16'
_cell_volume   412.87395494
_cell_formula_units_Z   8
loop_
 _symmetry_equiv_pos_site_id
 _symmetry_equiv_pos_as_xyz
  1  'x, y, z'
loop_
 _atom_site_type_symbol
 _atom_site_label
 _atom_site_symmetry_multiplicity
 _atom_site_fract_x
 _atom_site_fract_y
 _atom_site_fract_z
 _atom_site_occupancy
  Al  Al0  1  0.69576986  0.66300000  0.53662544  1
  Al  Al1  1  0.14826648  0.17630126  0.48547027  1
  Al  Al2  1  0.91650739  0.15253447  0.73287390  1
  Al  Al3  1  0.40694839  0.17781544  0.24407456  1
  Al  Al4  1  0.07223085  0.83587337  0.75608461  1
  Al  Al5  1  0.85587170  0.83042457  0.01489666  1
  Al  Al6  1  0.06859594  0.31481615  0.22739645  1
  Al  Al7  1  0.84229437  0.33924600  0.50855952  1
  N  N8  1  0.51797079  0.67015886  0.37240884  1
  N  N9  1  0.96106744  0.16757416  0.29605356  1
  N  N10  1  0.16742061  0.64490851  0.51939879  1
  N  N11  1  0.96758473  0.66297437  0.79487094  1
  N  N12  1  0.74591659  0.17941324  0.56668128  1
  N  N13  1  0.48414078  0.19247014  0.83115711  1
  N  N14  1  0.74695998  0.66995279  0.06673969  1
  N  N15  1  0.20777066  0.15520023  0.05470386  1
  N  N16  1  0.89118455  0.84242454  0.57765705  1
  N  N17  1  0.36465370  0.31611326  0.51979811  1
  N  N18  1  0.67007393  0.80468591  0.82156479  1
  N  N19  1  0.40971545  0.88352966  0.06889810  1
  N  N20  1  0.11802360  0.30438807  0.76407519  1
  N  N21  1  0.88756877  0.28799398  0.01556939  1
  N  N22  1  0.12375570  0.87587410  0.31396778  1
  N  N23  1  0.64477866  0.34051827  0.33568491  1
  Zr  Zr24  1  0.40521946  0.67647311  0.73604066  1
  Zr  Zr25  1  0.19346928  0.67872209  0.02281914  1
  Zr  Zr26  1  0.66260365  0.13682327  0.99816943  1
  Zr  Zr27  1  0.94500856  0.65473618  0.26659841  1
  Zr  Zr28  1  0.57634710  0.33754649  0.73526934  1
  Zr  Zr29  1  0.58721505  0.82398594  0.25884428  1
  Zr  Zr30  1  0.33150039  0.36655656  0.02052046  1
  Zr  Zr31  1  0.34356559  0.83696502  0.49652747  1
