# generated using pymatgen
data_NbAlN2
_symmetry_space_group_name_H-M   'P 1'
_cell_length_a   8.40614185
_cell_length_b   8.33945252
_cell_length_c   8.35876293
_cell_angle_alpha   133.07994109
_cell_angle_beta   106.02906323
_cell_angle_gamma   92.74488350
_symmetry_Int_Tables_number   1
_chemical_formula_structural   NbAlN2
_chemical_formula_sum   'Nb8 Al8 N16'
_cell_volume   387.31073296
_cell_formula_units_Z   8
loop_
 _symmetry_equiv_pos_site_id
 _symmetry_equiv_pos_as_xyz
  1  'x, y, z'
loop_
 _atom_site_type_symbol
 _atom_site_label
 _atom_site_symmetry_multiplicity
 _atom_site_fract_x
 _atom_site_fract_y
 _atom_site_fract_z
 _atom_site_occupancy
  Al  Al0  1  0.69886896  0.66851662  0.53263929  1
  Al  Al1  1  0.16640601  0.17434738  0.49968730  1
  Al  Al2  1  0.91720793  0.15465374  0.73667993  1
  Al  Al3  1  0.41774385  0.17903462  0.25757088  1
  Al  Al4  1  0.09162482  0.82962530  0.75758388  1
  Al  Al5  1  0.86785752  0.85826631  0.01570820  1
  Al  Al6  1  0.08085738  0.32792843  0.24558003  1
  Al  Al7  1  0.84296187  0.33328847  0.49825308  1
  N  N8  1  0.50416840  0.67620275  0.37155824  1
  N  N9  1  0.97900176  0.18074058  0.31137368  1
  N  N10  1  0.20720912  0.64689097  0.55319178  1
  N  N11  1  0.96988955  0.66569014  0.79408736  1
  N  N12  1  0.73874370  0.16960219  0.54805855  1
  N  N13  1  0.40678458  0.14779439  0.75056033  1
  N  N14  1  0.72612459  0.69844905  0.03986289  1
  N  N15  1  0.21537298  0.16116841  0.06029269  1
  N  N16  1  0.89642744  0.83781380  0.57033123  1
  N  N17  1  0.37866876  0.31389388  0.53468692  1
  N  N18  1  0.67379096  0.84934581  0.82638193  1
  N  N19  1  0.39105758  0.86049866  0.06499829  1
  N  N20  1  0.11947367  0.30910598  0.77171836  1
  N  N21  1  0.88839275  0.31048119  0.02616782  1
  N  N22  1  0.10940153  0.84818587  0.29465599  1
  N  N23  1  0.63843749  0.33641106  0.32022349  1
  Nb  Nb24  1  0.48389922  0.66814728  0.80935795  1
  Nb  Nb25  1  0.19546989  0.66708588  0.03124734  1
  Nb  Nb26  1  0.63624297  0.17475529  0.97671602  1
  Nb  Nb27  1  0.88944015  0.65210450  0.22989639  1
  Nb  Nb28  1  0.59905346  0.32535515  0.76609984  1
  Nb  Nb29  1  0.57242925  0.80753010  0.25331407  1
  Nb  Nb30  1  0.34075760  0.36440390  0.02824948  1
  Nb  Nb31  1  0.31623429  0.80268230  0.48326681  1
