# generated using pymatgen
data_AlMoN2
_symmetry_space_group_name_H-M   'P 1'
_cell_length_a   8.02937478
_cell_length_b   8.11689430
_cell_length_c   8.01183723
_cell_angle_alpha   128.93358027
_cell_angle_beta   115.81643060
_cell_angle_gamma   85.86958590
_symmetry_Int_Tables_number   1
_chemical_formula_structural   AlMoN2
_chemical_formula_sum   'Al8 Mo8 N16'
_cell_volume   350.14873733
_cell_formula_units_Z   8
loop_
 _symmetry_equiv_pos_site_id
 _symmetry_equiv_pos_as_xyz
  1  'x, y, z'
loop_
 _atom_site_type_symbol
 _atom_site_label
 _atom_site_symmetry_multiplicity
 _atom_site_fract_x
 _atom_site_fract_y
 _atom_site_fract_z
 _atom_site_occupancy
  Al  Al0  1  0.70859607  0.66553321  0.54467761  1
  Al  Al1  1  0.18679829  0.17893822  0.51956814  1
  Al  Al2  1  0.94266815  0.15187622  0.76291275  1
  Al  Al3  1  0.45842013  0.18046369  0.30170844  1
  Al  Al4  1  0.11127241  0.83501642  0.78792487  1
  Al  Al5  1  0.87390009  0.85398083  0.02945296  1
  Al  Al6  1  0.11155311  0.32970709  0.27450441  1
  Al  Al7  1  0.86537079  0.33319517  0.52786599  1
  N  N8  1  0.46143215  0.63796984  0.29428698  1
  N  N9  1  0.94323138  0.17467989  0.27585386  1
  N  N10  1  0.18308769  0.64459548  0.53831720  1
  N  N11  1  0.94834435  0.65983819  0.77690858  1
  N  N12  1  0.70453588  0.16690972  0.52837856  1
  N  N13  1  0.42035600  0.15234281  0.73628840  1
  N  N14  1  0.72798604  0.69926526  0.04942429  1
  N  N15  1  0.18191864  0.15530073  0.02110490  1
  N  N16  1  0.86180806  0.83684276  0.54188283  1
  N  N17  1  0.35912530  0.32645984  0.51750564  1
  N  N18  1  0.62222706  0.83589077  0.78256953  1
  N  N19  1  0.35575947  0.87277424  0.06308107  1
  N  N20  1  0.09671566  0.29945167  0.74523523  1
  N  N21  1  0.88307572  0.33303870  0.02638132  1
  N  N22  1  0.11575815  0.86728825  0.27772688  1
  N  N23  1  0.61905605  0.34760406  0.31005249  1
  Mo  Mo24  1  0.45187942  0.66550007  0.81902672  1
  Mo  Mo25  1  0.21838791  0.64539711  0.03897170  1
  Mo  Mo26  1  0.66792458  0.18304681  0.01029688  1
  Mo  Mo27  1  0.96757230  0.67200681  0.28068004  1
  Mo  Mo28  1  0.62460957  0.35548712  0.81123499  1
  Mo  Mo29  1  0.58720986  0.80811328  0.25590609  1
  Mo  Mo30  1  0.36889739  0.31577480  0.01352043  1
  Mo  Mo31  1  0.33052230  0.81571094  0.49675022  1
