# generated using pymatgen
data_HfAlN2
_symmetry_space_group_name_H-M   'P 1'
_cell_length_a   8.52085120
_cell_length_b   8.51593193
_cell_length_c   8.36563457
_cell_angle_alpha   133.04167883
_cell_angle_beta   102.64459677
_cell_angle_gamma   95.68688954
_symmetry_Int_Tables_number   1
_chemical_formula_structural   HfAlN2
_chemical_formula_sum   'Hf8 Al8 N16'
_cell_volume   405.76341154
_cell_formula_units_Z   8
loop_
 _symmetry_equiv_pos_site_id
 _symmetry_equiv_pos_as_xyz
  1  'x, y, z'
loop_
 _atom_site_type_symbol
 _atom_site_label
 _atom_site_symmetry_multiplicity
 _atom_site_fract_x
 _atom_site_fract_y
 _atom_site_fract_z
 _atom_site_occupancy
  Al  Al0  1  0.69680498  0.66236674  0.53592468  1
  Al  Al1  1  0.15050639  0.17841172  0.48776987  1
  Al  Al2  1  0.91396806  0.15232702  0.73200737  1
  Al  Al3  1  0.40847486  0.17849743  0.24254929  1
  Al  Al4  1  0.07542931  0.83694933  0.75805837  1
  Al  Al5  1  0.85705238  0.82992928  0.01742018  1
  Al  Al6  1  0.06845355  0.31544921  0.22553143  1
  Al  Al7  1  0.84383198  0.33820799  0.50867452  1
  N  N8  1  0.51995056  0.67074995  0.37209526  1
  N  N9  1  0.96379431  0.16749249  0.29658072  1
  N  N10  1  0.16981687  0.64516842  0.51940566  1
  N  N11  1  0.97204621  0.66359473  0.79926594  1
  N  N12  1  0.74088102  0.17665157  0.56357165  1
  N  N13  1  0.47965477  0.19039265  0.83016943  1
  N  N14  1  0.74726221  0.66849794  0.07068138  1
  N  N15  1  0.21032146  0.15859193  0.05353921  1
  N  N16  1  0.89391261  0.84175545  0.57783783  1
  N  N17  1  0.36829104  0.31912562  0.52165729  1
  N  N18  1  0.67050260  0.80345114  0.82304828  1
  N  N19  1  0.40650763  0.88087343  0.06420442  1
  N  N20  1  0.11602712  0.30695394  0.76565442  1
  N  N21  1  0.88256072  0.28795922  0.01571038  1
  N  N22  1  0.12458066  0.87696843  0.31825585  1
  N  N23  1  0.64774521  0.33826794  0.33150914  1
  Hf  Hf24  1  0.40558236  0.67702479  0.73373605  1
  Hf  Hf25  1  0.19517585  0.68031565  0.02669073  1
  Hf  Hf26  1  0.65800107  0.13197721  0.99229650  1
  Hf  Hf27  1  0.94413134  0.65489607  0.26672644  1
  Hf  Hf28  1  0.57317810  0.33769011  0.73768319  1
  Hf  Hf29  1  0.58150128  0.82291340  0.25569481  1
  Hf  Hf30  1  0.33004668  0.37092975  0.02097617  1
  Hf  Hf31  1  0.34400682  0.83561946  0.49507355  1
