# generated using pymatgen
data_TaAlN2
_symmetry_space_group_name_H-M   'P 1'
_cell_length_a   8.38670695
_cell_length_b   8.31948385
_cell_length_c   8.35029641
_cell_angle_alpha   134.13543765
_cell_angle_beta   103.61343015
_cell_angle_gamma   94.06996293
_symmetry_Int_Tables_number   1
_chemical_formula_structural   TaAlN2
_chemical_formula_sum   'Ta8 Al8 N16'
_cell_volume   382.66815616
_cell_formula_units_Z   8
loop_
 _symmetry_equiv_pos_site_id
 _symmetry_equiv_pos_as_xyz
  1  'x, y, z'
loop_
 _atom_site_type_symbol
 _atom_site_label
 _atom_site_symmetry_multiplicity
 _atom_site_fract_x
 _atom_site_fract_y
 _atom_site_fract_z
 _atom_site_occupancy
  Al  Al0  1  0.69615833  0.67115596  0.51601248  1
  Al  Al1  1  0.16254764  0.16634570  0.48944374  1
  Al  Al2  1  0.91136910  0.15802572  0.73908854  1
  Al  Al3  1  0.41673080  0.18229787  0.24768947  1
  Al  Al4  1  0.09837353  0.83185062  0.75331174  1
  Al  Al5  1  0.86196274  0.85221582  0.00604375  1
  Al  Al6  1  0.10321761  0.34229713  0.26011523  1
  Al  Al7  1  0.84496243  0.33638005  0.51811072  1
  N  N8  1  0.48758775  0.66012768  0.35553329  1
  N  N9  1  0.97593247  0.18124851  0.30948462  1
  N  N10  1  0.23576942  0.66182110  0.57277707  1
  N  N11  1  0.97847461  0.66955839  0.79816538  1
  N  N12  1  0.72721019  0.17004141  0.56509115  1
  N  N13  1  0.46563910  0.10883580  0.82743129  1
  N  N14  1  0.70216314  0.68045411  0.00695015  1
  N  N15  1  0.22421017  0.15949243  0.05707300  1
  N  N16  1  0.90524972  0.84376193  0.57111472  1
  N  N17  1  0.37223035  0.31996537  0.52530904  1
  N  N18  1  0.68362908  0.85539463  0.82100571  1
  N  N19  1  0.39232563  0.86395077  0.06018179  1
  N  N20  1  0.10775358  0.31064339  0.76169327  1
  N  N21  1  0.92671407  0.32938217  0.05236626  1
  N  N22  1  0.09299308  0.82942606  0.27691978  1
  N  N23  1  0.65019566  0.34468336  0.34504889  1
  Ta  Ta24  1  0.47772739  0.67392737  0.79392268  1
  Ta  Ta25  1  0.18518243  0.66892618  0.01627814  1
  Ta  Ta26  1  0.69243561  0.21178599  0.04787581  1
  Ta  Ta27  1  0.85621103  0.63489826  0.20852899  1
  Ta  Ta28  1  0.54163596  0.29809069  0.75035334  1
  Ta  Ta29  1  0.55358729  0.80784883  0.24658264  1
  Ta  Ta30  1  0.32600259  0.35834690  0.99686527  1
  Ta  Ta31  1  0.30381750  0.81681986  0.46363205  1
