# generated using pymatgen
data_AlWN2
_symmetry_space_group_name_H-M   'P 1'
_cell_length_a   8.15004640
_cell_length_b   8.30408860
_cell_length_c   8.17997124
_cell_angle_alpha   133.62044579
_cell_angle_beta   100.46416469
_cell_angle_gamma   96.16873432
_symmetry_Int_Tables_number   1
_chemical_formula_structural   AlWN2
_chemical_formula_sum   'Al8 W8 N16'
_cell_volume   372.44725456
_cell_formula_units_Z   8
loop_
 _symmetry_equiv_pos_site_id
 _symmetry_equiv_pos_as_xyz
  1  'x, y, z'
loop_
 _atom_site_type_symbol
 _atom_site_label
 _atom_site_symmetry_multiplicity
 _atom_site_fract_x
 _atom_site_fract_y
 _atom_site_fract_z
 _atom_site_occupancy
  Al  Al0  1  0.69333476  0.66330531  0.50361333  1
  Al  Al1  1  0.15257487  0.18416499  0.49067474  1
  Al  Al2  1  0.90777254  0.13029242  0.71536011  1
  Al  Al3  1  0.41053060  0.18494229  0.24971095  1
  Al  Al4  1  0.10218274  0.83286390  0.76110081  1
  Al  Al5  1  0.85443105  0.85618259  0.01555080  1
  Al  Al6  1  0.09376479  0.33196840  0.24502349  1
  Al  Al7  1  0.83459237  0.33620438  0.51451202  1
  N  N8  1  0.50258551  0.68495713  0.36033759  1
  N  N9  1  0.97284430  0.18048213  0.30966129  1
  N  N10  1  0.24016238  0.64473831  0.56521463  1
  N  N11  1  0.97539575  0.66521090  0.80770804  1
  N  N12  1  0.72285661  0.15056956  0.55238314  1
  N  N13  1  0.44997483  0.09198555  0.75780653  1
  N  N14  1  0.75131152  0.70833860  0.09075817  1
  N  N15  1  0.23125735  0.16476145  0.05338085  1
  N  N16  1  0.91785621  0.82668622  0.56832753  1
  N  N17  1  0.37755758  0.32078502  0.53682322  1
  N  N18  1  0.66699116  0.84947484  0.82290621  1
  N  N19  1  0.36785164  0.86211864  0.05924390  1
  N  N20  1  0.11938907  0.29641183  0.76817621  1
  N  N21  1  0.90019398  0.27507559  0.01920906  1
  N  N22  1  0.11916287  0.87919951  0.32673382  1
  N  N23  1  0.64625492  0.34065639  0.33570119  1
  W  W24  1  0.46460387  0.67777658  0.79014421  1
  W  W25  1  0.17160272  0.64599434  0.02390950  1
  W  W26  1  0.65857832  0.22613568  0.02412365  1
  W  W27  1  0.90243840  0.61108019  0.20909012  1
  W  W28  1  0.56439533  0.38379279  0.80865022  1
  W  W29  1  0.54251843  0.81832996  0.22370848  1
  W  W30  1  0.35695314  0.38160129  0.00818512  1
  W  W31  1  0.28808042  0.79391321  0.44227107  1
