# generated using pymatgen
data_AlReN2
_symmetry_space_group_name_H-M   'P 1'
_cell_length_a   8.12097254
_cell_length_b   8.26777331
_cell_length_c   7.92573471
_cell_angle_alpha   132.31353703
_cell_angle_beta   99.79589352
_cell_angle_gamma   98.46314076
_symmetry_Int_Tables_number   1
_chemical_formula_structural   AlReN2
_chemical_formula_sum   'Al8 Re8 N16'
_cell_volume   361.90235003
_cell_formula_units_Z   8
loop_
 _symmetry_equiv_pos_site_id
 _symmetry_equiv_pos_as_xyz
  1  'x, y, z'
loop_
 _atom_site_type_symbol
 _atom_site_label
 _atom_site_symmetry_multiplicity
 _atom_site_fract_x
 _atom_site_fract_y
 _atom_site_fract_z
 _atom_site_occupancy
  Al  Al0  1  0.70159177  0.65475065  0.50535301  1
  Al  Al1  1  0.16584153  0.18631133  0.49780714  1
  Al  Al2  1  0.89442034  0.11852373  0.70280357  1
  Al  Al3  1  0.42151245  0.20994417  0.25164189  1
  Al  Al4  1  0.09604859  0.83908657  0.76802170  1
  Al  Al5  1  0.85676827  0.84619041  0.02275403  1
  Al  Al6  1  0.08220645  0.32084600  0.23933074  1
  Al  Al7  1  0.83473302  0.32713728  0.50426728  1
  N  N8  1  0.51405096  0.68238164  0.36348669  1
  N  N9  1  0.97642604  0.16789602  0.31148703  1
  N  N10  1  0.21852189  0.63727625  0.56407027  1
  N  N11  1  0.97576455  0.65692606  0.81179852  1
  N  N12  1  0.70788042  0.14775022  0.54700279  1
  N  N13  1  0.42424507  0.11429073  0.73277289  1
  N  N14  1  0.76240035  0.71993904  0.13097463  1
  N  N15  1  0.22148362  0.17138155  0.05258048  1
  N  N16  1  0.91791090  0.82592627  0.55882950  1
  N  N17  1  0.39005720  0.34956096  0.55241423  1
  N  N18  1  0.68481755  0.84177534  0.82431458  1
  N  N19  1  0.36197412  0.90560572  0.09611134  1
  N  N20  1  0.11502914  0.29330714  0.76855245  1
  N  N21  1  0.88539062  0.27491146  0.02329847  1
  N  N22  1  0.13893025  0.88008314  0.33865678  1
  N  N23  1  0.66268545  0.34062123  0.32120499  1
  Re  Re24  1  0.45338054  0.71301637  0.81410037  1
  Re  Re25  1  0.18585676  0.64681537  0.02877710  1
  Re  Re26  1  0.61549816  0.13449272  0.93642014  1
  Re  Re27  1  0.92908543  0.60308501  0.20384284  1
  Re  Re28  1  0.56813014  0.41595190  0.83007935  1
  Re  Re29  1  0.53165673  0.81248213  0.20770548  1
  Re  Re30  1  0.36107152  0.38330823  0.00062089  1
  Re  Re31  1  0.30463016  0.77842537  0.44891880  1
