# generated using pymatgen
data_AlOsN2
_symmetry_space_group_name_H-M   'P 1'
_cell_length_a   7.98747885
_cell_length_b   8.31096848
_cell_length_c   8.03141473
_cell_angle_alpha   133.64065699
_cell_angle_beta   99.52977715
_cell_angle_gamma   96.69861444
_symmetry_Int_Tables_number   1
_chemical_formula_structural   AlOsN2
_chemical_formula_sum   'Al8 Os8 N16'
_cell_volume   360.04488309
_cell_formula_units_Z   8
loop_
 _symmetry_equiv_pos_site_id
 _symmetry_equiv_pos_as_xyz
  1  'x, y, z'
loop_
 _atom_site_type_symbol
 _atom_site_label
 _atom_site_symmetry_multiplicity
 _atom_site_fract_x
 _atom_site_fract_y
 _atom_site_fract_z
 _atom_site_occupancy
  Al  Al0  1  0.69420022  0.67393371  0.52708443  1
  Al  Al1  1  0.16260560  0.18415023  0.49420266  1
  Al  Al2  1  0.89647136  0.12140868  0.70863983  1
  Al  Al3  1  0.42356716  0.20390146  0.25522243  1
  Al  Al4  1  0.10258356  0.83530746  0.75425759  1
  Al  Al5  1  0.84899228  0.86683843  0.01929841  1
  Al  Al6  1  0.09033637  0.33386344  0.24785277  1
  Al  Al7  1  0.83645739  0.34345864  0.51478308  1
  N  N8  1  0.50773647  0.67130212  0.34998130  1
  N  N9  1  0.97910560  0.18221806  0.31688697  1
  N  N10  1  0.24143090  0.63988781  0.56074296  1
  N  N11  1  0.97588491  0.66979242  0.80960598  1
  N  N12  1  0.71338199  0.15801375  0.55638510  1
  N  N13  1  0.39823104  0.06150069  0.75047819  1
  N  N14  1  0.76036648  0.73744088  0.12433592  1
  N  N15  1  0.22658926  0.16247887  0.05559126  1
  N  N16  1  0.91119424  0.82509867  0.56185718  1
  N  N17  1  0.39714722  0.32415691  0.55207098  1
  N  N18  1  0.65515629  0.86449215  0.83809729  1
  N  N19  1  0.37641360  0.89443064  0.09839715  1
  N  N20  1  0.11383997  0.27751809  0.75900023  1
  N  N21  1  0.89563767  0.28561217  0.02976575  1
  N  N22  1  0.12789286  0.87073883  0.31125307  1
  N  N23  1  0.65827861  0.35196024  0.33169502  1
  Os  Os24  1  0.43309626  0.66552345  0.79859784  1
  Os  Os25  1  0.18638093  0.63085304  0.00150515  1
  Os  Os26  1  0.63441084  0.20469271  0.97799911  1
  Os  Os27  1  0.92482525  0.61413043  0.20131256  1
  Os  Os28  1  0.60363978  0.40869149  0.82377404  1
  Os  Os29  1  0.54286948  0.81000274  0.22280497  1
  Os  Os30  1  0.35420397  0.36619834  0.99809532  1
  Os  Os31  1  0.28707243  0.76040344  0.40842545  1
