# generated using pymatgen
data_AlB3N4
_symmetry_space_group_name_H-M   'P 1'
_cell_length_a   7.01686002
_cell_length_b   7.01261636
_cell_length_c   4.67225240
_cell_angle_alpha   89.88236968
_cell_angle_beta   89.95262059
_cell_angle_gamma   101.52226733
_symmetry_Int_Tables_number   1
_chemical_formula_structural   AlB3N4
_chemical_formula_sum   'Al4 B12 N16'
_cell_volume   225.27150508
_cell_formula_units_Z   4
loop_
 _symmetry_equiv_pos_site_id
 _symmetry_equiv_pos_as_xyz
  1  'x, y, z'
loop_
 _atom_site_type_symbol
 _atom_site_label
 _atom_site_symmetry_multiplicity
 _atom_site_fract_x
 _atom_site_fract_y
 _atom_site_fract_z
 _atom_site_occupancy
  B  B0  1  0.00432326  0.50381291  0.33292077  1
  B  B1  1  0.25074201  0.25085595  0.33656813  1
  B  B2  1  0.12759675  0.37811399  0.81803100  1
  B  B3  1  0.49414675  0.00332079  0.34089215  1
  B  B4  1  0.36793482  0.12711080  0.81885929  1
  B  B5  1  0.88243542  0.61471231  0.83417195  1
  B  B6  1  0.89253194  0.13292337  0.17529040  1
  B  B7  1  0.76035500  0.24724991  0.66241892  1
  B  B8  1  0.12584068  0.88804004  0.17119620  1
  B  B9  1  0.01170438  0.01455638  0.67143913  1
  B  B10  1  0.23546037  0.75932791  0.65774519  1
  B  B11  1  0.49710227  0.48500527  0.66213565  1
  N  N12  1  0.15907638  0.70495495  0.35197657  1
  N  N13  1  0.42838667  0.42324296  0.35667848  1
  N  N14  1  0.30369859  0.55970180  0.79413783  1
  N  N15  1  0.70580253  0.16484597  0.35765537  1
  N  N16  1  0.55560925  0.29573179  0.79609596  1
  N  N17  1  0.96373689  0.96608259  0.33677736  1
  N  N18  1  0.83754171  0.08247224  0.84267154  1
  N  N19  1  0.06130413  0.81945187  0.83838007  1
  N  N20  1  0.84062143  0.55301962  0.14655067  1
  N  N21  1  0.07479367  0.32251114  0.16801472  1
  N  N22  1  0.94259357  0.43638339  0.65891918  1
  N  N23  1  0.31532676  0.07144459  0.16059007  1
  N  N24  1  0.18862457  0.19354789  0.66791838  1
  N  N25  1  0.55029597  0.83045850  0.19757693  1
  N  N26  1  0.40868663  0.94642218  0.64973380  1
  N  N27  1  0.68845035  0.65472458  0.69453267  1
  Al  Al28  1  0.76382997  0.75119593  0.33826707  1
  Al  Al29  1  0.62047161  0.88063880  0.83043380  1
  Al  Al30  1  0.62729041  0.35713777  0.16162551  1
  Al  Al31  1  0.35368526  0.62100181  0.16979523  1
