# generated using pymatgen
data_AlN
_symmetry_space_group_name_H-M   'P 1'
_cell_length_a   8.02008371
_cell_length_b   8.02008361
_cell_length_c   5.41758084
_cell_angle_alpha   89.99998980
_cell_angle_beta   90.00000941
_cell_angle_gamma   102.52013128
_symmetry_Int_Tables_number   1
_chemical_formula_structural   AlN
_chemical_formula_sum   'Al16 N16'
_cell_volume   340.18162665
_cell_formula_units_Z   16
loop_
 _symmetry_equiv_pos_site_id
 _symmetry_equiv_pos_as_xyz
  1  'x, y, z'
loop_
 _atom_site_type_symbol
 _atom_site_label
 _atom_site_symmetry_multiplicity
 _atom_site_fract_x
 _atom_site_fract_y
 _atom_site_fract_z
 _atom_site_occupancy
  Al  Al0  1  0.99972308  0.49972335  0.33330774  1
  Al  Al1  1  0.24972335  0.24972319  0.33330796  1
  Al  Al2  1  0.12472165  0.37472146  0.83329229  1
  Al  Al3  1  0.49972317  0.99972323  0.33330793  1
  Al  Al4  1  0.37472164  0.12472160  0.83329241  1
  Al  Al5  1  0.87472161  0.62472178  0.83329262  1
  Al  Al6  1  0.87472133  0.12472152  0.16670772  1
  Al  Al7  1  0.74972305  0.24972299  0.66669209  1
  Al  Al8  1  0.12472172  0.87472158  0.16670737  1
  Al  Al9  1  0.99972322  0.99972328  0.66669223  1
  Al  Al10  1  0.24972320  0.74972297  0.66669241  1
  Al  Al11  1  0.49972302  0.49972316  0.66669205  1
  Al  Al12  1  0.74972321  0.74972320  0.33330783  1
  Al  Al13  1  0.62472145  0.87472146  0.83329227  1
  Al  Al14  1  0.62472151  0.37472155  0.16670761  1
  Al  Al15  1  0.37472138  0.62472127  0.16670742  1
  N  N16  1  0.19027703  0.69027717  0.33335641  1
  N  N17  1  0.44027707  0.44027683  0.33335649  1
  N  N18  1  0.31527838  0.56527806  0.83335858  1
  N  N19  1  0.69027671  0.19027717  0.33335646  1
  N  N20  1  0.56527793  0.31527825  0.83335872  1
  N  N21  1  0.94027730  0.94027689  0.33335640  1
  N  N22  1  0.81527826  0.06527821  0.83335868  1
  N  N23  1  0.06527838  0.81527828  0.83335880  1
  N  N24  1  0.81527818  0.56527843  0.16664118  1
  N  N25  1  0.06527857  0.31527831  0.16664145  1
  N  N26  1  0.94027698  0.44027724  0.66664366  1
  N  N27  1  0.31527830  0.06527844  0.16664114  1
  N  N28  1  0.19027741  0.19027700  0.66664354  1
  N  N29  1  0.56527814  0.81527815  0.16664143  1
  N  N30  1  0.44027683  0.94027715  0.66664367  1
  N  N31  1  0.69027695  0.69027683  0.66664345  1
