# generated using pymatgen
data_AlSi3N4
_symmetry_space_group_name_H-M   'P 1'
_cell_length_a   8.31112176
_cell_length_b   8.18391761
_cell_length_c   5.45019792
_cell_angle_alpha   87.70118293
_cell_angle_beta   97.83736636
_cell_angle_gamma   92.74997588
_symmetry_Int_Tables_number   1
_chemical_formula_structural   AlSi3N4
_chemical_formula_sum   'Al4 Si12 N16'
_cell_volume   366.61222185
_cell_formula_units_Z   4
loop_
 _symmetry_equiv_pos_site_id
 _symmetry_equiv_pos_as_xyz
  1  'x, y, z'
loop_
 _atom_site_type_symbol
 _atom_site_label
 _atom_site_symmetry_multiplicity
 _atom_site_fract_x
 _atom_site_fract_y
 _atom_site_fract_z
 _atom_site_occupancy
  Si  Si0  1  0.07469625  0.51403351  0.31514791  1
  Si  Si1  1  0.19047703  0.25341997  0.42577646  1
  Si  Si2  1  0.09067920  0.36251741  0.97016183  1
  Si  Si3  1  0.45916048  0.00924687  0.24647953  1
  Si  Si4  1  0.28711542  0.16852042  0.93653716  1
  Si  Si5  1  0.86997905  0.60928327  0.86671479  1
  Si  Si6  1  0.85095145  0.10204067  0.20193892  1
  Si  Si7  1  0.75514784  0.26029488  0.70144954  1
  Si  Si8  1  0.08986044  0.85562525  0.14639837  1
  Si  Si9  1  0.06885320  0.91446119  0.63018481  1
  Si  Si10  1  0.30101948  0.78709872  0.57542821  1
  Si  Si11  1  0.53599170  0.53921020  0.64090634  1
  N  N12  1  0.21540162  0.69715805  0.28130498  1
  N  N13  1  0.53187935  0.52723965  0.32098482  1
  N  N14  1  0.37616577  0.62412427  0.76382763  1
  N  N15  1  0.72330204  0.20334231  0.38070498  1
  N  N16  1  0.60562531  0.37175852  0.81513163  1
  N  N17  1  0.92925503  0.90375931  0.33907340  1
  N  N18  1  0.76927972  0.08269598  0.88992590  1
  N  N19  1  0.99745217  0.78979740  0.86517239  1
  N  N20  1  0.84929448  0.56962741  0.18449387  1
  N  N21  1  0.02330251  0.21504455  0.18696042  1
  N  N22  1  0.91748939  0.41551036  0.76009610  1
  N  N23  1  0.24684853  0.99324407  0.11943752  1
  N  N24  1  0.14095487  0.11548038  0.66745520  1
  N  N25  1  0.56404598  0.84717990  0.12371941  1
  N  N26  1  0.45832439  0.93301664  0.55065772  1
  N  N27  1  0.70306944  0.69636453  0.68262809  1
  Al  Al28  1  0.72873783  0.72621942  0.33332264  1
  Al  Al29  1  0.62698111  0.90269721  0.80632918  1
  Al  Al30  1  0.65761453  0.38940084  0.16859923  1
  Al  Al31  1  0.40104437  0.66058688  0.10305103  1
