# generated using pymatgen
data_Ti3AlN4
_symmetry_space_group_name_H-M   'P 1'
_cell_length_a   8.14487152
_cell_length_b   8.13681808
_cell_length_c   6.00874390
_cell_angle_alpha   89.90948338
_cell_angle_beta   90.19441222
_cell_angle_gamma   117.32738273
_symmetry_Int_Tables_number   1
_chemical_formula_structural   Ti3AlN4
_chemical_formula_sum   'Ti12 Al4 N16'
_cell_volume   353.77535732
_cell_formula_units_Z   4
loop_
 _symmetry_equiv_pos_site_id
 _symmetry_equiv_pos_as_xyz
  1  'x, y, z'
loop_
 _atom_site_type_symbol
 _atom_site_label
 _atom_site_symmetry_multiplicity
 _atom_site_fract_x
 _atom_site_fract_y
 _atom_site_fract_z
 _atom_site_occupancy
  Ti  Ti0  1  0.97088097  0.47156937  0.32963966  1
  Ti  Ti1  1  0.21564688  0.21322321  0.33280864  1
  Ti  Ti2  1  0.08999696  0.34201649  0.83080758  1
  Ti  Ti3  1  0.47167928  0.96821373  0.33635247  1
  Ti  Ti4  1  0.34288895  0.08939882  0.83074688  1
  Ti  Ti5  1  0.84769398  0.60172267  0.83578446  1
  Ti  Ti6  1  0.84949025  0.10258772  0.16868277  1
  Ti  Ti7  1  0.72212198  0.22475569  0.66589600  1
  Ti  Ti8  1  0.09922278  0.84572625  0.16982793  1
  Ti  Ti9  1  0.97595524  0.97665119  0.66580276  1
  Ti  Ti10  1  0.21628745  0.71509113  0.66369031  1
  Ti  Ti11  1  0.46163257  0.46226692  0.66776525  1
  N  N12  1  0.23027117  0.71240586  0.32158418  1
  N  N13  1  0.47428478  0.47484834  0.32325764  1
  N  N14  1  0.35209491  0.59763876  0.84366509  1
  N  N15  1  0.71324884  0.22772366  0.32349583  1
  N  N16  1  0.59384773  0.34811526  0.84449614  1
  N  N17  1  0.96287778  0.96383083  0.33106449  1
  N  N18  1  0.83605099  0.09045569  0.83899039  1
  N  N19  1  0.09686158  0.84265798  0.83776447  1
  N  N20  1  0.83233601  0.59740645  0.17489842  1
  N  N21  1  0.10398331  0.35117654  0.16565941  1
  N  N22  1  0.96670100  0.47367855  0.66405597  1
  N  N23  1  0.35390094  0.10014957  0.16703305  1
  N  N24  1  0.21762968  0.21859047  0.66760924  1
  N  N25  1  0.59581243  0.83694874  0.16183456  1
  N  N26  1  0.47720420  0.96167703  0.67323238  1
  N  N27  1  0.71274109  0.72351779  0.65979572  1
  Al  Al28  1  0.71644350  0.72118661  0.33460913  1
  Al  Al29  1  0.59688596  0.84172903  0.83672406  1
  Al  Al30  1  0.59325768  0.35083584  0.16809530  1
  Al  Al31  1  0.35006913  0.59220380  0.16432983  1
