# generated using pymatgen
data_AlV3N4
_symmetry_space_group_name_H-M   'P 1'
_cell_length_a   7.91644565
_cell_length_b   7.91231891
_cell_length_c   5.84130583
_cell_angle_alpha   90.18966070
_cell_angle_beta   89.98589171
_cell_angle_gamma   117.53645773
_symmetry_Int_Tables_number   1
_chemical_formula_structural   AlV3N4
_chemical_formula_sum   'Al4 V12 N16'
_cell_volume   324.43379320
_cell_formula_units_Z   4
loop_
 _symmetry_equiv_pos_site_id
 _symmetry_equiv_pos_as_xyz
  1  'x, y, z'
loop_
 _atom_site_type_symbol
 _atom_site_label
 _atom_site_symmetry_multiplicity
 _atom_site_fract_x
 _atom_site_fract_y
 _atom_site_fract_z
 _atom_site_occupancy
  V  V0  1  0.97065027  0.47191717  0.32711108  1
  V  V1  1  0.21108992  0.20578229  0.33960861  1
  V  V2  1  0.08580744  0.34332726  0.83215034  1
  V  V3  1  0.46717817  0.97394841  0.33891854  1
  V  V4  1  0.34516995  0.09008777  0.82233438  1
  V  V5  1  0.85296692  0.59889964  0.82926107  1
  V  V6  1  0.85677062  0.10863397  0.17675865  1
  V  V7  1  0.71957700  0.22477945  0.65867678  1
  V  V8  1  0.10056939  0.84836673  0.17385531  1
  V  V9  1  0.98005386  0.97670423  0.67295444  1
  V  V10  1  0.21362280  0.71923130  0.65556276  1
  V  V11  1  0.45735239  0.45279406  0.66775833  1
  N  N12  1  0.22852958  0.71488869  0.31850671  1
  N  N13  1  0.47144935  0.47169858  0.32713822  1
  N  N14  1  0.34800763  0.59440548  0.83686420  1
  N  N15  1  0.71540717  0.22758288  0.31882520  1
  N  N16  1  0.59349478  0.34779904  0.84259515  1
  N  N17  1  0.96272009  0.96447694  0.33789001  1
  N  N18  1  0.83867513  0.09362754  0.84187578  1
  N  N19  1  0.09862259  0.84427895  0.83828228  1
  N  N20  1  0.83760606  0.59992655  0.16999525  1
  N  N21  1  0.10492104  0.34838753  0.16715045  1
  N  N22  1  0.96934998  0.46973347  0.66024323  1
  N  N23  1  0.34953844  0.10036489  0.16486995  1
  N  N24  1  0.21474536  0.21847000  0.67164767  1
  N  N25  1  0.59610341  0.83994001  0.16526656  1
  N  N26  1  0.47772262  0.96089068  0.67150898  1
  N  N27  1  0.71437056  0.72151322  0.66352497  1
  Al  Al28  1  0.71674428  0.72241621  0.33800938  1
  Al  Al29  1  0.59792168  0.84207472  0.83946041  1
  Al  Al30  1  0.59289054  0.35054193  0.16754936  1
  Al  Al31  1  0.35037095  0.59251040  0.16384591  1
