# generated using pymatgen
data_AlCr3N4
_symmetry_space_group_name_H-M   'P 1'
_cell_length_a   7.97847409
_cell_length_b   7.87447864
_cell_length_c   5.31869715
_cell_angle_alpha   90.72973806
_cell_angle_beta   90.91139526
_cell_angle_gamma   103.94231231
_symmetry_Int_Tables_number   1
_chemical_formula_structural   AlCr3N4
_chemical_formula_sum   'Al4 Cr12 N16'
_cell_volume   324.22131436
_cell_formula_units_Z   4
loop_
 _symmetry_equiv_pos_site_id
 _symmetry_equiv_pos_as_xyz
  1  'x, y, z'
loop_
 _atom_site_type_symbol
 _atom_site_label
 _atom_site_symmetry_multiplicity
 _atom_site_fract_x
 _atom_site_fract_y
 _atom_site_fract_z
 _atom_site_occupancy
  Cr  Cr0  1  0.01474500  0.53721418  0.31780894  1
  Cr  Cr1  1  0.23697537  0.22987953  0.31003546  1
  Cr  Cr2  1  0.10710834  0.39720184  0.81711669  1
  Cr  Cr3  1  0.51705327  0.01211068  0.36370834  1
  Cr  Cr4  1  0.35789755  0.09989753  0.81259443  1
  Cr  Cr5  1  0.88843452  0.61030831  0.84669962  1
  Cr  Cr6  1  0.91854398  0.13983806  0.14760455  1
  Cr  Cr7  1  0.73835949  0.21865730  0.67147170  1
  Cr  Cr8  1  0.13332654  0.91248454  0.14594397  1
  Cr  Cr9  1  0.03009548  0.04247511  0.66528409  1
  Cr  Cr10  1  0.21233701  0.74406497  0.67170163  1
  Cr  Cr11  1  0.43358005  0.43665677  0.66856087  1
  N  N12  1  0.20384396  0.72342735  0.32032601  1
  N  N13  1  0.43892745  0.43420763  0.31455932  1
  N  N14  1  0.31550102  0.58254683  0.84008925  1
  N  N15  1  0.71313277  0.18381540  0.31694429  1
  N  N16  1  0.56687900  0.30241820  0.83102872  1
  N  N17  1  0.93856799  0.94228760  0.34246659  1
  N  N18  1  0.81323877  0.04244328  0.83324164  1
  N  N19  1  0.03269289  0.82478583  0.82216367  1
  N  N20  1  0.80189888  0.56549970  0.17740608  1
  N  N21  1  0.08421999  0.35518688  0.16999754  1
  N  N22  1  0.91315067  0.43271762  0.62803659  1
  N  N23  1  0.35602648  0.07448294  0.16239898  1
  N  N24  1  0.21859171  0.23330925  0.65839255  1
  N  N25  1  0.56966178  0.81394262  0.19692896  1
  N  N26  1  0.44282836  0.91551469  0.67916832  1
  N  N27  1  0.67440136  0.65280467  0.69100101  1
  Al  Al28  1  0.74664638  0.74301785  0.37165228  1
  Al  Al29  1  0.62137307  0.84437005  0.85558909  1
  Al  Al30  1  0.62453043  0.36395121  0.16914992  1
  Al  Al31  1  0.37543042  0.62848162  0.18092891  1
