# generated using pymatgen
data_Mn3AlN4
_symmetry_space_group_name_H-M   'P 1'
_cell_length_a   7.80680784
_cell_length_b   7.82902504
_cell_length_c   5.25683499
_cell_angle_alpha   89.65894566
_cell_angle_beta   89.82700465
_cell_angle_gamma   101.02585450
_symmetry_Int_Tables_number   1
_chemical_formula_structural   Mn3AlN4
_chemical_formula_sum   'Mn12 Al4 N16'
_cell_volume   315.35691853
_cell_formula_units_Z   4
loop_
 _symmetry_equiv_pos_site_id
 _symmetry_equiv_pos_as_xyz
  1  'x, y, z'
loop_
 _atom_site_type_symbol
 _atom_site_label
 _atom_site_symmetry_multiplicity
 _atom_site_fract_x
 _atom_site_fract_y
 _atom_site_fract_z
 _atom_site_occupancy
  Mn  Mn0  1  0.01557935  0.49119774  0.31431304  1
  Mn  Mn1  1  0.23756674  0.25304821  0.36724948  1
  Mn  Mn2  1  0.13111082  0.41690009  0.79008848  1
  Mn  Mn3  1  0.47709647  0.00410245  0.33971480  1
  Mn  Mn4  1  0.37374748  0.12889492  0.80548598  1
  Mn  Mn5  1  0.88695779  0.61680710  0.84703242  1
  Mn  Mn6  1  0.91262235  0.13615456  0.17218552  1
  Mn  Mn7  1  0.77875912  0.22696951  0.64038150  1
  Mn  Mn8  1  0.14555312  0.92107635  0.17690407  1
  Mn  Mn9  1  0.01440833  0.00534076  0.67983514  1
  Mn  Mn10  1  0.23161921  0.77718170  0.65124778  1
  Mn  Mn11  1  0.46107025  0.45884280  0.66331469  1
  N  N12  1  0.16546634  0.70142226  0.32514089  1
  N  N13  1  0.43725897  0.43613634  0.31602504  1
  N  N14  1  0.32363167  0.59300004  0.82498704  1
  N  N15  1  0.68759233  0.15945117  0.32416825  1
  N  N16  1  0.57834975  0.29957792  0.81080844  1
  N  N17  1  0.93632404  0.93521496  0.35027385  1
  N  N18  1  0.81566986  0.05074680  0.85751137  1
  N  N19  1  0.05401659  0.80800127  0.87427450  1
  N  N20  1  0.81037752  0.55398431  0.16818555  1
  N  N21  1  0.09103590  0.32874719  0.12348647  1
  N  N22  1  0.92199606  0.43777264  0.64324736  1
  N  N23  1  0.33208735  0.10868856  0.15128704  1
  N  N24  1  0.17715251  0.20081402  0.69843057  1
  N  N25  1  0.55976122  0.80858380  0.18773140  1
  N  N26  1  0.44492947  0.93590034  0.67283225  1
  N  N27  1  0.67815445  0.66157199  0.68469458  1
  Al  Al28  1  0.74530501  0.73840710  0.35408298  1
  Al  Al29  1  0.62404825  0.85684255  0.85228381  1
  Al  Al30  1  0.62521419  0.35650253  0.15729746  1
  Al  Al31  1  0.36553749  0.63211800  0.17549825  1
