# generated using pymatgen
data_AlFe3N4
_symmetry_space_group_name_H-M   'P 1'
_cell_length_a   7.83128388
_cell_length_b   7.87527902
_cell_length_c   5.17215147
_cell_angle_alpha   89.69117609
_cell_angle_beta   90.04666246
_cell_angle_gamma   100.00244539
_symmetry_Int_Tables_number   1
_chemical_formula_structural   AlFe3N4
_chemical_formula_sum   'Al4 Fe12 N16'
_cell_volume   314.13189202
_cell_formula_units_Z   4
loop_
 _symmetry_equiv_pos_site_id
 _symmetry_equiv_pos_as_xyz
  1  'x, y, z'
loop_
 _atom_site_type_symbol
 _atom_site_label
 _atom_site_symmetry_multiplicity
 _atom_site_fract_x
 _atom_site_fract_y
 _atom_site_fract_z
 _atom_site_occupancy
  Fe  Fe0  1  0.01119464  0.49703841  0.32759187  1
  Fe  Fe1  1  0.25257916  0.25567405  0.35214510  1
  Fe  Fe2  1  0.13391857  0.39868338  0.82198197  1
  Fe  Fe3  1  0.48483978  0.01054425  0.34305054  1
  Fe  Fe4  1  0.37113541  0.13109759  0.80571743  1
  Fe  Fe5  1  0.89217688  0.61354801  0.83332186  1
  Fe  Fe6  1  0.90074042  0.12856612  0.17485430  1
  Fe  Fe7  1  0.76527475  0.23448087  0.65512666  1
  Fe  Fe8  1  0.13570369  0.90806035  0.17200345  1
  Fe  Fe9  1  0.01003896  0.00702715  0.66780165  1
  Fe  Fe10  1  0.23033355  0.77066820  0.66506151  1
  Fe  Fe11  1  0.48535437  0.48577256  0.66520002  1
  N  N12  1  0.17260479  0.69849397  0.32837414  1
  N  N13  1  0.44218319  0.43977543  0.31986728  1
  N  N14  1  0.31719655  0.58470355  0.81644555  1
  N  N15  1  0.68937087  0.16605387  0.32579145  1
  N  N16  1  0.57118713  0.30318065  0.80959238  1
  N  N17  1  0.93301783  0.93000977  0.34260023  1
  N  N18  1  0.81673208  0.05373284  0.84833396  1
  N  N19  1  0.04657253  0.81319081  0.86083602  1
  N  N20  1  0.81494502  0.55441897  0.16343491  1
  N  N21  1  0.07786621  0.32133588  0.15508380  1
  N  N22  1  0.93346879  0.42703340  0.65459922  1
  N  N23  1  0.32437737  0.09002261  0.15337255  1
  N  N24  1  0.17582180  0.19782303  0.67815527  1
  N  N25  1  0.55983714  0.81161748  0.18300401  1
  N  N26  1  0.43501601  0.93482327  0.67185829  1
  N  N27  1  0.68368307  0.66968915  0.68366535  1
  Al  Al28  1  0.74697300  0.73846543  0.34473554  1
  Al  Al29  1  0.62519609  0.86608853  0.84658158  1
  Al  Al30  1  0.63087802  0.36314844  0.15754491  1
  Al  Al31  1  0.36978231  0.63523199  0.17226722  1
