# generated using pymatgen
data_AlCo3N4
_symmetry_space_group_name_H-M   'P 1'
_cell_length_a   7.81418799
_cell_length_b   7.83970591
_cell_length_c   5.19797736
_cell_angle_alpha   89.44960402
_cell_angle_beta   89.47261457
_cell_angle_gamma   99.39862494
_symmetry_Int_Tables_number   1
_chemical_formula_structural   AlCo3N4
_chemical_formula_sum   'Al4 Co12 N16'
_cell_volume   314.12511212
_cell_formula_units_Z   4
loop_
 _symmetry_equiv_pos_site_id
 _symmetry_equiv_pos_as_xyz
  1  'x, y, z'
loop_
 _atom_site_type_symbol
 _atom_site_label
 _atom_site_symmetry_multiplicity
 _atom_site_fract_x
 _atom_site_fract_y
 _atom_site_fract_z
 _atom_site_occupancy
  Co  Co0  1  0.00817512  0.49035199  0.33870762  1
  Co  Co1  1  0.24395694  0.24796899  0.32707717  1
  Co  Co2  1  0.14302879  0.39592320  0.79926665  1
  Co  Co3  1  0.48042767  0.01374707  0.33707140  1
  Co  Co4  1  0.37914051  0.14676468  0.79418733  1
  Co  Co5  1  0.90609767  0.62261693  0.82810936  1
  Co  Co6  1  0.89900481  0.12626592  0.18994533  1
  Co  Co7  1  0.76002832  0.23461350  0.64785469  1
  Co  Co8  1  0.12999846  0.90364536  0.20135416  1
  Co  Co9  1  0.00022448  0.00112352  0.66371192  1
  Co  Co10  1  0.23123551  0.76040493  0.66972850  1
  Co  Co11  1  0.49470985  0.49222145  0.67536229  1
  N  N12  1  0.17055850  0.69298097  0.33570999  1
  N  N13  1  0.43958549  0.43579475  0.32479379  1
  N  N14  1  0.32222931  0.58645870  0.82333398  1
  N  N15  1  0.68620323  0.16553517  0.32358065  1
  N  N16  1  0.58009672  0.30911821  0.81254563  1
  N  N17  1  0.92313682  0.92418097  0.34824522  1
  N  N18  1  0.82001085  0.06220950  0.85700281  1
  N  N19  1  0.06229255  0.82824524  0.87301504  1
  N  N20  1  0.81872092  0.55516828  0.16061718  1
  N  N21  1  0.07428670  0.32402304  0.13469913  1
  N  N22  1  0.93083110  0.42309184  0.66790956  1
  N  N23  1  0.31928271  0.08046087  0.12923910  1
  N  N24  1  0.17387400  0.18670762  0.66376037  1
  N  N25  1  0.55685035  0.81221129  0.18252808  1
  N  N26  1  0.42728112  0.93633353  0.67024636  1
  N  N27  1  0.69044831  0.67524173  0.69023331  1
  Al  Al28  1  0.74173246  0.73349015  0.34427230  1
  Al  Al29  1  0.62372639  0.87316216  0.84736396  1
  Al  Al30  1  0.63262906  0.36787397  0.16022888  1
  Al  Al31  1  0.37019531  0.63206448  0.17829822  1
