# generated using pymatgen
data_AlNi3N4
_symmetry_space_group_name_H-M   'P 1'
_cell_length_a   7.78869392
_cell_length_b   8.02401664
_cell_length_c   5.27051717
_cell_angle_alpha   91.52412439
_cell_angle_beta   89.96902624
_cell_angle_gamma   99.26811325
_symmetry_Int_Tables_number   1
_chemical_formula_structural   AlNi3N4
_chemical_formula_sum   'Al4 Ni12 N16'
_cell_volume   324.97208894
_cell_formula_units_Z   4
loop_
 _symmetry_equiv_pos_site_id
 _symmetry_equiv_pos_as_xyz
  1  'x, y, z'
loop_
 _atom_site_type_symbol
 _atom_site_label
 _atom_site_symmetry_multiplicity
 _atom_site_fract_x
 _atom_site_fract_y
 _atom_site_fract_z
 _atom_site_occupancy
  Ni  Ni0  1  0.01251592  0.50599765  0.36315584  1
  Ni  Ni1  1  0.24800834  0.26799895  0.32180912  1
  Ni  Ni2  1  0.12028812  0.40686668  0.80218584  1
  Ni  Ni3  1  0.50618430  0.01394812  0.36722794  1
  Ni  Ni4  1  0.35099833  0.11909516  0.84022060  1
  Ni  Ni5  1  0.89031408  0.60823450  0.81040291  1
  Ni  Ni6  1  0.90487278  0.12368817  0.15517441  1
  Ni  Ni7  1  0.72165718  0.22690582  0.64585391  1
  Ni  Ni8  1  0.13233422  0.89338688  0.14959769  1
  Ni  Ni9  1  0.01782699  0.01055806  0.69242379  1
  Ni  Ni10  1  0.23115502  0.73443834  0.68161461  1
  Ni  Ni11  1  0.52373312  0.49580904  0.67365857  1
  N  N12  1  0.18341383  0.70260749  0.32632964  1
  N  N13  1  0.44954118  0.44440730  0.33338409  1
  N  N14  1  0.33138491  0.56344389  0.83898816  1
  N  N15  1  0.69970975  0.17594881  0.30055408  1
  N  N16  1  0.54148175  0.29796465  0.83645611  1
  N  N17  1  0.94683126  0.94143250  0.35122525  1
  N  N18  1  0.80933332  0.06235913  0.83152369  1
  N  N19  1  0.03947781  0.80792662  0.83939356  1
  N  N20  1  0.81975185  0.55774765  0.16176782  1
  N  N21  1  0.06397179  0.33176332  0.14332130  1
  N  N22  1  0.90414322  0.40366723  0.65173897  1
  N  N23  1  0.32322427  0.07440656  0.18382175  1
  N  N24  1  0.18147669  0.20822512  0.65599914  1
  N  N25  1  0.56965885  0.81506483  0.17910591  1
  N  N26  1  0.41684043  0.92057658  0.67190215  1
  N  N27  1  0.69482062  0.69340333  0.66715487  1
  Al  Al28  1  0.76380466  0.75043706  0.33595080  1
  Al  Al29  1  0.61977122  0.87378936  0.84551649  1
  Al  Al30  1  0.63706439  0.37266624  0.16041658  1
  Al  Al31  1  0.38440981  0.63523499  0.18212440  1
