# generated using pymatgen
data_Y3AlN4
_symmetry_space_group_name_H-M   'P 1'
_cell_length_a   9.13976408
_cell_length_b   9.11922477
_cell_length_c   6.44853733
_cell_angle_alpha   89.71092446
_cell_angle_beta   90.35300492
_cell_angle_gamma   111.02765761
_symmetry_Int_Tables_number   1
_chemical_formula_structural   Y3AlN4
_chemical_formula_sum   'Y12 Al4 N16'
_cell_volume   501.66648081
_cell_formula_units_Z   4
loop_
 _symmetry_equiv_pos_site_id
 _symmetry_equiv_pos_as_xyz
  1  'x, y, z'
loop_
 _atom_site_type_symbol
 _atom_site_label
 _atom_site_symmetry_multiplicity
 _atom_site_fract_x
 _atom_site_fract_y
 _atom_site_fract_z
 _atom_site_occupancy
  Y  Y0  1  0.98551346  0.47907413  0.33376743  1
  Y  Y1  1  0.24437128  0.24231244  0.32121991  1
  Y  Y2  1  0.10798191  0.35495552  0.84683425  1
  Y  Y3  1  0.47772564  0.96606992  0.32900205  1
  Y  Y4  1  0.37047787  0.11711147  0.85210923  1
  Y  Y5  1  0.84075581  0.60937695  0.83600438  1
  Y  Y6  1  0.83400562  0.09422794  0.16413313  1
  Y  Y7  1  0.72362177  0.23588416  0.66692288  1
  Y  Y8  1  0.09837678  0.83928172  0.17358479  1
  Y  Y9  1  0.97902717  0.97885875  0.65665012  1
  Y  Y10  1  0.24765627  0.73167004  0.68584008  1
  Y  Y11  1  0.48405909  0.50141880  0.65805057  1
  N  N12  1  0.24956037  0.69357652  0.32679912  1
  N  N13  1  0.46490364  0.46566597  0.29590587  1
  N  N14  1  0.32867665  0.57088551  0.87565666  1
  N  N15  1  0.68169219  0.22922911  0.31498821  1
  N  N16  1  0.59296167  0.35957559  0.86879095  1
  N  N17  1  0.92904618  0.92962197  0.32446080  1
  N  N18  1  0.81542092  0.06732480  0.82230417  1
  N  N19  1  0.07401666  0.81987680  0.83032557  1
  N  N20  1  0.81520996  0.59194252  0.19422318  1
  N  N21  1  0.05256097  0.30117324  0.17502032  1
  N  N22  1  0.95113934  0.45517684  0.67401086  1
  N  N23  1  0.30898803  0.05418734  0.17643548  1
  N  N24  1  0.21322891  0.20694334  0.66370410  1
  N  N25  1  0.59729048  0.81604201  0.13254325  1
  N  N26  1  0.47855269  0.95391553  0.69163485  1
  N  N27  1  0.69637877  0.73248272  0.63829907  1
  Al  Al28  1  0.73990337  0.74615317  0.32189406  1
  Al  Al29  1  0.63067331  0.87470654  0.81932291  1
  Al  Al30  1  0.62572522  0.39642174  0.17451279  1
  Al  Al31  1  0.40049798  0.62485691  0.15504893  1
