# generated using pymatgen
data_Zr3AlN4
_symmetry_space_group_name_H-M   'P 1'
_cell_length_a   8.64841421
_cell_length_b   8.62272385
_cell_length_c   6.33963606
_cell_angle_alpha   90.17874712
_cell_angle_beta   90.07259930
_cell_angle_gamma   116.31848308
_symmetry_Int_Tables_number   1
_chemical_formula_structural   Zr3AlN4
_chemical_formula_sum   'Zr12 Al4 N16'
_cell_volume   423.75586823
_cell_formula_units_Z   4
loop_
 _symmetry_equiv_pos_site_id
 _symmetry_equiv_pos_as_xyz
  1  'x, y, z'
loop_
 _atom_site_type_symbol
 _atom_site_label
 _atom_site_symmetry_multiplicity
 _atom_site_fract_x
 _atom_site_fract_y
 _atom_site_fract_z
 _atom_site_occupancy
  Zr  Zr0  1  0.97090437  0.47045305  0.32290998  1
  Zr  Zr1  1  0.22417805  0.21575806  0.33380310  1
  Zr  Zr2  1  0.08755017  0.34632840  0.83439172  1
  Zr  Zr3  1  0.46973182  0.97134056  0.34138681  1
  Zr  Zr4  1  0.34560634  0.09078057  0.82332878  1
  Zr  Zr5  1  0.84499449  0.60196758  0.84192108  1
  Zr  Zr6  1  0.83912926  0.09405482  0.17444570  1
  Zr  Zr7  1  0.71968342  0.22158981  0.66594598  1
  Zr  Zr8  1  0.10054108  0.83909031  0.17924825  1
  Zr  Zr9  1  0.96926586  0.97329773  0.65966873  1
  Zr  Zr10  1  0.21915792  0.71790539  0.66442070  1
  Zr  Zr11  1  0.46702952  0.46835368  0.66677685  1
  N  N12  1  0.24422127  0.70105572  0.31565376  1
  N  N13  1  0.47583372  0.47901632  0.31053081  1
  N  N14  1  0.35638214  0.59961445  0.85504564  1
  N  N15  1  0.70555542  0.23689206  0.31065988  1
  N  N16  1  0.59389400  0.35202925  0.85919474  1
  N  N17  1  0.95841424  0.95720443  0.32587446  1
  N  N18  1  0.82851946  0.08260051  0.84459609  1
  N  N19  1  0.09432036  0.84549869  0.84343040  1
  N  N20  1  0.82073029  0.59922897  0.18600155  1
  N  N21  1  0.10412427  0.34348150  0.16605776  1
  N  N22  1  0.96410476  0.47815425  0.65901182  1
  N  N23  1  0.35768694  0.10249396  0.15691685  1
  N  N24  1  0.21588105  0.22302161  0.67201155  1
  N  N25  1  0.59755355  0.82840859  0.15377553  1
  N  N26  1  0.48501825  0.95174638  0.68762312  1
  N  N27  1  0.70549159  0.72624213  0.64953577  1
  Al  Al28  1  0.70969597  0.71749375  0.32990328  1
  Al  Al29  1  0.59778034  0.83920566  0.83701568  1
  Al  Al30  1  0.59849139  0.36187845  0.16906746  1
  Al  Al31  1  0.36852867  0.60381340  0.15984619  1
