# generated using pymatgen
data_Nb3AlN4
_symmetry_space_group_name_H-M   'P 1'
_cell_length_a   8.63010282
_cell_length_b   8.43990708
_cell_length_c   5.77265000
_cell_angle_alpha   89.13714463
_cell_angle_beta   89.94653898
_cell_angle_gamma   106.19056501
_symmetry_Int_Tables_number   1
_chemical_formula_structural   Nb3AlN4
_chemical_formula_sum   'Nb12 Al4 N16'
_cell_volume   403.73672268
_cell_formula_units_Z   4
loop_
 _symmetry_equiv_pos_site_id
 _symmetry_equiv_pos_as_xyz
  1  'x, y, z'
loop_
 _atom_site_type_symbol
 _atom_site_label
 _atom_site_symmetry_multiplicity
 _atom_site_fract_x
 _atom_site_fract_y
 _atom_site_fract_z
 _atom_site_occupancy
  Nb  Nb0  1  0.03204384  0.54292536  0.34348184  1
  Nb  Nb1  1  0.21663346  0.25787206  0.30077114  1
  Nb  Nb2  1  0.10245957  0.39643005  0.78724639  1
  Nb  Nb3  1  0.46051358  0.94434031  0.34426898  1
  Nb  Nb4  1  0.33783375  0.08722597  0.84335873  1
  Nb  Nb5  1  0.89358626  0.64923210  0.83873522  1
  Nb  Nb6  1  0.87859698  0.12584508  0.16024884  1
  Nb  Nb7  1  0.73997461  0.21523478  0.66097395  1
  Nb  Nb8  1  0.12407040  0.90322898  0.22082968  1
  Nb  Nb9  1  0.02246567  0.04379257  0.65242026  1
  Nb  Nb10  1  0.23654526  0.75588782  0.67820056  1
  Nb  Nb11  1  0.45220526  0.44391966  0.66375333  1
  N  N12  1  0.25782752  0.71886064  0.31029623  1
  N  N13  1  0.46520230  0.44566389  0.31007063  1
  N  N14  1  0.34025807  0.58278645  0.84064296  1
  N  N15  1  0.68032376  0.18251855  0.32298484  1
  N  N16  1  0.56638633  0.29873575  0.84603125  1
  N  N17  1  0.90291483  0.92381967  0.34280555  1
  N  N18  1  0.80253083  0.02475378  0.83805785  1
  N  N19  1  0.09001434  0.86289265  0.86604929  1
  N  N20  1  0.80522890  0.56200033  0.16431384  1
  N  N21  1  0.04356687  0.35053592  0.13871911  1
  N  N22  1  0.88796866  0.44686917  0.64979406  1
  N  N23  1  0.34793665  0.09185252  0.19628328  1
  N  N24  1  0.23469626  0.23700708  0.65609730  1
  N  N25  1  0.58047229  0.79630857  0.16020827  1
  N  N26  1  0.47985237  0.94409483  0.69464021  1
  N  N27  1  0.67607779  0.66675852  0.66514530  1
  Al  Al28  1  0.73551392  0.72381323  0.34485936  1
  Al  Al29  1  0.62412462  0.83715800  0.83821084  1
  Al  Al30  1  0.62586302  0.36355682  0.16159066  1
  Al  Al31  1  0.39631198  0.61407894  0.15891026  1
