# generated using pymatgen
data_AlMo3N4
_symmetry_space_group_name_H-M   'P 1'
_cell_length_a   8.48498073
_cell_length_b   8.27196013
_cell_length_c   5.48763876
_cell_angle_alpha   91.72767699
_cell_angle_beta   91.03588928
_cell_angle_gamma   102.82934926
_symmetry_Int_Tables_number   1
_chemical_formula_structural   AlMo3N4
_chemical_formula_sum   'Al4 Mo12 N16'
_cell_volume   375.25589474
_cell_formula_units_Z   4
loop_
 _symmetry_equiv_pos_site_id
 _symmetry_equiv_pos_as_xyz
  1  'x, y, z'
loop_
 _atom_site_type_symbol
 _atom_site_label
 _atom_site_symmetry_multiplicity
 _atom_site_fract_x
 _atom_site_fract_y
 _atom_site_fract_z
 _atom_site_occupancy
  Mo  Mo0  1  0.01625379  0.53569255  0.30007039  1
  Mo  Mo1  1  0.25308983  0.23058902  0.34098577  1
  Mo  Mo2  1  0.09159873  0.40520150  0.80125880  1
  Mo  Mo3  1  0.50382914  0.01687795  0.35353292  1
  Mo  Mo4  1  0.40297812  0.11112111  0.78560255  1
  Mo  Mo5  1  0.88026369  0.60863755  0.84892201  1
  Mo  Mo6  1  0.92696792  0.16248945  0.15649203  1
  Mo  Mo7  1  0.73852178  0.20612877  0.67618218  1
  Mo  Mo8  1  0.10772848  0.89346785  0.17129908  1
  Mo  Mo9  1  0.03182518  0.04621277  0.67309908  1
  Mo  Mo10  1  0.20054192  0.73935203  0.66037003  1
  Mo  Mo11  1  0.44814693  0.44608873  0.67303464  1
  N  N12  1  0.22703547  0.71610995  0.29899439  1
  N  N13  1  0.45351218  0.44435403  0.31223224  1
  N  N14  1  0.31773226  0.57840589  0.84609146  1
  N  N15  1  0.70116065  0.18318603  0.30286796  1
  N  N16  1  0.58401124  0.32416934  0.86120986  1
  N  N17  1  0.90935783  0.93840092  0.35135049  1
  N  N18  1  0.80364569  0.02892817  0.84734261  1
  N  N19  1  0.01250180  0.82248024  0.82002151  1
  N  N20  1  0.79210051  0.57360941  0.18763727  1
  N  N21  1  0.11929296  0.35635670  0.15927638  1
  N  N22  1  0.89389807  0.43111470  0.60645461  1
  N  N23  1  0.32970103  0.05651807  0.14315317  1
  N  N24  1  0.23025088  0.23129631  0.70390111  1
  N  N25  1  0.56796103  0.80764714  0.18554390  1
  N  N26  1  0.44617120  0.89076842  0.66769472  1
  N  N27  1  0.66491922  0.65699162  0.68076932  1
  Al  Al28  1  0.73555271  0.74804742  0.36945901  1
  Al  Al29  1  0.62022503  0.84334034  0.85470465  1
  Al  Al30  1  0.63826092  0.37731439  0.18746079  1
  Al  Al31  1  0.39096380  0.62910162  0.17298510  1
