# generated using pymatgen
data_Hf3AlN4
_symmetry_space_group_name_H-M   'P 1'
_cell_length_a   8.73848840
_cell_length_b   8.53030702
_cell_length_c   6.05194151
_cell_angle_alpha   90.04379211
_cell_angle_beta   89.41146372
_cell_angle_gamma   107.85694608
_symmetry_Int_Tables_number   1
_chemical_formula_structural   Hf3AlN4
_chemical_formula_sum   'Hf12 Al4 N16'
_cell_volume   429.36691065
_cell_formula_units_Z   4
loop_
 _symmetry_equiv_pos_site_id
 _symmetry_equiv_pos_as_xyz
  1  'x, y, z'
loop_
 _atom_site_type_symbol
 _atom_site_label
 _atom_site_symmetry_multiplicity
 _atom_site_fract_x
 _atom_site_fract_y
 _atom_site_fract_z
 _atom_site_occupancy
  Hf  Hf0  1  0.00718798  0.51214539  0.35305912  1
  Hf  Hf1  1  0.23196402  0.25674713  0.32754813  1
  Hf  Hf2  1  0.09693266  0.38425673  0.79323193  1
  Hf  Hf3  1  0.46818125  0.95498072  0.32804021  1
  Hf  Hf4  1  0.34620060  0.08847027  0.83699234  1
  Hf  Hf5  1  0.88200477  0.63217395  0.82880824  1
  Hf  Hf6  1  0.87141384  0.11824433  0.17778961  1
  Hf  Hf7  1  0.70891641  0.20219300  0.66248016  1
  Hf  Hf8  1  0.10884940  0.88261965  0.21872777  1
  Hf  Hf9  1  0.00532605  0.00388821  0.63864346  1
  Hf  Hf10  1  0.23803144  0.74064523  0.67136609  1
  Hf  Hf11  1  0.46986989  0.46607084  0.67280437  1
  N  N12  1  0.25552975  0.72034289  0.30923366  1
  N  N13  1  0.46849737  0.46030563  0.30954540  1
  N  N14  1  0.33773638  0.58041898  0.85618984  1
  N  N15  1  0.68097315  0.19533155  0.31215408  1
  N  N16  1  0.56700896  0.31235348  0.86010401  1
  N  N17  1  0.88723190  0.91415092  0.33783599  1
  N  N18  1  0.82321151  0.05903623  0.84143641  1
  N  N19  1  0.10348859  0.86623010  0.87217979  1
  N  N20  1  0.81212897  0.56980388  0.17089853  1
  N  N21  1  0.07010252  0.34482121  0.13560446  1
  N  N22  1  0.88133867  0.42631572  0.66135839  1
  N  N23  1  0.34017378  0.09073174  0.17585342  1
  N  N24  1  0.24216215  0.23992157  0.67703424  1
  N  N25  1  0.58463620  0.80788714  0.14253585  1
  N  N26  1  0.49384087  0.95395453  0.67975986  1
  N  N27  1  0.68897319  0.69181740  0.66279613  1
  Al  Al28  1  0.72181866  0.71807661  0.33445637  1
  Al  Al29  1  0.63210143  0.85492755  0.83541563  1
  Al  Al30  1  0.62107278  0.36891251  0.16276041  1
  Al  Al31  1  0.39309487  0.62222489  0.15335609  1
