# generated using pymatgen
data_Ta3AlN4
_symmetry_space_group_name_H-M   'P 1'
_cell_length_a   8.50624191
_cell_length_b   8.31972489
_cell_length_c   5.78532044
_cell_angle_alpha   89.44232023
_cell_angle_beta   88.83326899
_cell_angle_gamma   103.33436771
_symmetry_Int_Tables_number   1
_chemical_formula_structural   Ta3AlN4
_chemical_formula_sum   'Ta12 Al4 N16'
_cell_volume   398.26055785
_cell_formula_units_Z   4
loop_
 _symmetry_equiv_pos_site_id
 _symmetry_equiv_pos_as_xyz
  1  'x, y, z'
loop_
 _atom_site_type_symbol
 _atom_site_label
 _atom_site_symmetry_multiplicity
 _atom_site_fract_x
 _atom_site_fract_y
 _atom_site_fract_z
 _atom_site_occupancy
  Ta  Ta0  1  0.04560954  0.54747680  0.35153503  1
  Ta  Ta1  1  0.23330472  0.25364279  0.37037019  1
  Ta  Ta2  1  0.13862391  0.42137625  0.80360435  1
  Ta  Ta3  1  0.46421399  0.95984309  0.33915242  1
  Ta  Ta4  1  0.34283184  0.12683362  0.81372755  1
  Ta  Ta5  1  0.87461044  0.59661269  0.84059144  1
  Ta  Ta6  1  0.89589390  0.14151688  0.16941828  1
  Ta  Ta7  1  0.72484164  0.20104763  0.65059921  1
  Ta  Ta8  1  0.13215139  0.90424958  0.18591410  1
  Ta  Ta9  1  0.98635423  0.97865397  0.61866745  1
  Ta  Ta10  1  0.21919445  0.77697074  0.69736379  1
  Ta  Ta11  1  0.47359749  0.46620540  0.66035645  1
  N  N12  1  0.26812009  0.73709178  0.33347096  1
  N  N13  1  0.46212009  0.45064401  0.30765310  1
  N  N14  1  0.34867201  0.60424693  0.84670767  1
  N  N15  1  0.68080920  0.17210244  0.30171568  1
  N  N16  1  0.59310119  0.32670352  0.85317382  1
  N  N17  1  0.89811458  0.91338516  0.29366092  1
  N  N18  1  0.80440683  0.04075162  0.85627911  1
  N  N19  1  0.01442060  0.81537118  0.89131416  1
  N  N20  1  0.80979835  0.54367742  0.18133820  1
  N  N21  1  0.08099078  0.35184351  0.15575331  1
  N  N22  1  0.90233939  0.40962185  0.61265556  1
  N  N23  1  0.35625535  0.10802001  0.16539218  1
  N  N24  1  0.13404498  0.18717964  0.70301511  1
  N  N25  1  0.58073813  0.80101685  0.15720918  1
  N  N26  1  0.48913783  0.96052384  0.68696287  1
  N  N27  1  0.69446719  0.68461241  0.65363063  1
  Al  Al28  1  0.73828088  0.72161558  0.32580333  1
  Al  Al29  1  0.62900443  0.85025464  0.84229862  1
  Al  Al30  1  0.62384419  0.36098464  0.17055760  1
  Al  Al31  1  0.40010637  0.62592354  0.16010770  1
