# generated using pymatgen
data_AlW3N4
_symmetry_space_group_name_H-M   'P 1'
_cell_length_a   8.49316878
_cell_length_b   8.28647366
_cell_length_c   5.47211232
_cell_angle_alpha   90.91257778
_cell_angle_beta   91.99505433
_cell_angle_gamma   102.39769264
_symmetry_Int_Tables_number   1
_chemical_formula_structural   AlW3N4
_chemical_formula_sum   'Al4 W12 N16'
_cell_volume   375.80195840
_cell_formula_units_Z   4
loop_
 _symmetry_equiv_pos_site_id
 _symmetry_equiv_pos_as_xyz
  1  'x, y, z'
loop_
 _atom_site_type_symbol
 _atom_site_label
 _atom_site_symmetry_multiplicity
 _atom_site_fract_x
 _atom_site_fract_y
 _atom_site_fract_z
 _atom_site_occupancy
  W  W0  1  0.00705625  0.51597555  0.29438341  1
  W  W1  1  0.25214040  0.22372750  0.34104845  1
  W  W2  1  0.07622682  0.39530488  0.78938197  1
  W  W3  1  0.49418997  0.01369995  0.35543520  1
  W  W4  1  0.41062726  0.12188617  0.76896654  1
  W  W5  1  0.88952659  0.61681927  0.86014479  1
  W  W6  1  0.92887836  0.16613223  0.15700520  1
  W  W7  1  0.73488768  0.20641716  0.67536964  1
  W  W8  1  0.12052511  0.89600359  0.24300437  1
  W  W9  1  0.03335860  0.04778375  0.67212842  1
  W  W10  1  0.21034694  0.77750499  0.64738088  1
  W  W11  1  0.45929419  0.45537670  0.66650358  1
  N  N12  1  0.21797584  0.68140496  0.29506910  1
  N  N13  1  0.45589947  0.44354380  0.30589580  1
  N  N14  1  0.31509998  0.57217630  0.81990574  1
  N  N15  1  0.70142821  0.17888455  0.30160887  1
  N  N16  1  0.59026757  0.33093077  0.86769215  1
  N  N17  1  0.90247953  0.93964746  0.35592390  1
  N  N18  1  0.80444080  0.02565278  0.84755052  1
  N  N19  1  0.02813181  0.82903790  0.85072273  1
  N  N20  1  0.78623275  0.57850797  0.18691661  1
  N  N21  1  0.12911929  0.35548085  0.14266366  1
  N  N22  1  0.87393384  0.43712144  0.60490051  1
  N  N23  1  0.32721919  0.04906384  0.11466617  1
  N  N24  1  0.23163056  0.23981215  0.70618397  1
  N  N25  1  0.55939886  0.80569092  0.18642091  1
  N  N26  1  0.44921786  0.88782732  0.67479873  1
  N  N27  1  0.66541179  0.65508639  0.68778956  1
  Al  Al28  1  0.73219210  0.74920403  0.37113591  1
  Al  Al29  1  0.62391185  0.84430076  0.86234367  1
  Al  Al30  1  0.64166067  0.37808756  0.19470413  1
  Al  Al31  1  0.38728985  0.62190650  0.15235491  1
