# generated using pymatgen
data_AlRe3N4
_symmetry_space_group_name_H-M   'P 1'
_cell_length_a   8.15915655
_cell_length_b   8.08993580
_cell_length_c   5.62216719
_cell_angle_alpha   91.16306801
_cell_angle_beta   91.99490306
_cell_angle_gamma   98.77784373
_symmetry_Int_Tables_number   1
_chemical_formula_structural   AlRe3N4
_chemical_formula_sum   'Al4 Re12 N16'
_cell_volume   366.41061528
_cell_formula_units_Z   4
loop_
 _symmetry_equiv_pos_site_id
 _symmetry_equiv_pos_as_xyz
  1  'x, y, z'
loop_
 _atom_site_type_symbol
 _atom_site_label
 _atom_site_symmetry_multiplicity
 _atom_site_fract_x
 _atom_site_fract_y
 _atom_site_fract_z
 _atom_site_occupancy
  Re  Re0  1  0.01350527  0.49641972  0.26170951  1
  Re  Re1  1  0.25601841  0.24150767  0.34094340  1
  Re  Re2  1  0.12490268  0.42396977  0.75368410  1
  Re  Re3  1  0.49027093  0.03468853  0.38088031  1
  Re  Re4  1  0.38031971  0.13284375  0.76729563  1
  Re  Re5  1  0.89884049  0.60969258  0.83333135  1
  Re  Re6  1  0.92338994  0.15885395  0.13801541  1
  Re  Re7  1  0.74780088  0.24694090  0.68956874  1
  Re  Re8  1  0.13069167  0.91405638  0.26637461  1
  Re  Re9  1  0.00231348  0.99247267  0.70208372  1
  Re  Re10  1  0.20987140  0.78190219  0.64751130  1
  Re  Re11  1  0.46306075  0.44701421  0.65662558  1
  N  N12  1  0.21214847  0.68056616  0.30837429  1
  N  N13  1  0.45587112  0.44192279  0.30532789  1
  N  N14  1  0.33220937  0.59151476  0.83760509  1
  N  N15  1  0.70131819  0.17102696  0.32042465  1
  N  N16  1  0.56793962  0.31065411  0.89544202  1
  N  N17  1  0.90151357  0.94266206  0.35031686  1
  N  N18  1  0.78396606  0.02697243  0.86354007  1
  N  N19  1  0.04922671  0.81535224  0.93426988  1
  N  N20  1  0.79700155  0.58148216  0.16749472  1
  N  N21  1  0.12844698  0.33467162  0.07831627  1
  N  N22  1  0.90117638  0.43596129  0.56593815  1
  N  N23  1  0.33148652  0.05685090  0.11190791  1
  N  N24  1  0.16081718  0.19195294  0.65906825  1
  N  N25  1  0.55762579  0.81556172  0.19309591  1
  N  N26  1  0.44541128  0.90120990  0.68431160  1
  N  N27  1  0.67114178  0.66082127  0.67922908  1
  Al  Al28  1  0.73485831  0.75042552  0.37185515  1
  Al  Al29  1  0.61934392  0.83948035  0.87355019  1
  Al  Al30  1  0.65293025  0.37825279  0.19940808  1
  Al  Al31  1  0.39458136  0.63229569  0.16250028  1
