# generated using pymatgen
data_AlOs3N4
_symmetry_space_group_name_H-M   'P 1'
_cell_length_a   8.18415154
_cell_length_b   8.68179231
_cell_length_c   5.09808170
_cell_angle_alpha   87.74209624
_cell_angle_beta   89.78772183
_cell_angle_gamma   96.04696115
_symmetry_Int_Tables_number   1
_chemical_formula_structural   AlOs3N4
_chemical_formula_sum   'Al4 Os12 N16'
_cell_volume   359.92809797
_cell_formula_units_Z   4
loop_
 _symmetry_equiv_pos_site_id
 _symmetry_equiv_pos_as_xyz
  1  'x, y, z'
loop_
 _atom_site_type_symbol
 _atom_site_label
 _atom_site_symmetry_multiplicity
 _atom_site_fract_x
 _atom_site_fract_y
 _atom_site_fract_z
 _atom_site_occupancy
  Os  Os0  1  0.03293133  0.51687708  0.33015481  1
  Os  Os1  1  0.26108221  0.31991583  0.33912691  1
  Os  Os2  1  0.15883322  0.42049258  0.83369086  1
  Os  Os3  1  0.45262805  0.01012465  0.30716540  1
  Os  Os4  1  0.40050678  0.13179080  0.78585219  1
  Os  Os5  1  0.92723107  0.60783634  0.82480332  1
  Os  Os6  1  0.89258220  0.10670069  0.14278444  1
  Os  Os7  1  0.74774050  0.21370271  0.67455132  1
  Os  Os8  1  0.13608815  0.93022874  0.16743131  1
  Os  Os9  1  0.00057272  0.02499532  0.65656540  1
  Os  Os10  1  0.23410120  0.82413817  0.64226174  1
  Os  Os11  1  0.47967041  0.46163849  0.68684721  1
  N  N12  1  0.19321149  0.70499542  0.31521240  1
  N  N13  1  0.46691375  0.46607872  0.29730643  1
  N  N14  1  0.32871344  0.61310754  0.80976314  1
  N  N15  1  0.67774127  0.14079293  0.31429281  1
  N  N16  1  0.58284296  0.30405567  0.88950063  1
  N  N17  1  0.90630996  0.89750145  0.34059921  1
  N  N18  1  0.77993402  0.00210767  0.83242498  1
  N  N19  1  0.02244119  0.81941656  0.86152825  1
  N  N20  1  0.80893684  0.54366265  0.17150063  1
  N  N21  1  0.03942139  0.30817757  0.15179329  1
  N  N22  1  0.92433568  0.39854831  0.66408283  1
  N  N23  1  0.29019357  0.13083634  0.14444504  1
  N  N24  1  0.17747943  0.20516266  0.67144580  1
  N  N25  1  0.56036061  0.80034193  0.19408840  1
  N  N26  1  0.46380163  0.92643060  0.67409021  1
  N  N27  1  0.68200137  0.64860108  0.69010176  1
  Al  Al28  1  0.74454040  0.71964657  0.35113863  1
  Al  Al29  1  0.62574145  0.82777391  0.84858980  1
  Al  Al30  1  0.65658272  0.36359849  0.22291701  1
  Al  Al31  1  0.38452904  0.65072255  0.16394382  1
