# generated using pymatgen
data_TiB3N4
_symmetry_space_group_name_H-M   'P 1'
_cell_length_a   8.17624852
_cell_length_b   6.75536216
_cell_length_c   4.48648611
_cell_angle_alpha   89.04752053
_cell_angle_beta   87.81032266
_cell_angle_gamma   100.92556845
_symmetry_Int_Tables_number   1
_chemical_formula_structural   TiB3N4
_chemical_formula_sum   'Ti4 B12 N16'
_cell_volume   243.06317906
_cell_formula_units_Z   4
loop_
 _symmetry_equiv_pos_site_id
 _symmetry_equiv_pos_as_xyz
  1  'x, y, z'
loop_
 _atom_site_type_symbol
 _atom_site_label
 _atom_site_symmetry_multiplicity
 _atom_site_fract_x
 _atom_site_fract_y
 _atom_site_fract_z
 _atom_site_occupancy
  B  B0  1  0.02755077  0.50380919  0.33751980  1
  B  B1  1  0.23483495  0.24760942  0.34208509  1
  B  B2  1  0.13855673  0.36969983  0.84225412  1
  B  B3  1  0.41078766  0.99470089  0.33056286  1
  B  B4  1  0.33175749  0.11886028  0.83033725  1
  B  B5  1  0.95035518  0.60210503  0.88332970  1
  B  B6  1  0.92959479  0.13017830  0.20401772  1
  B  B7  1  0.86046443  0.23954638  0.67375876  1
  B  B8  1  0.11966319  0.87236243  0.18457838  1
  B  B9  1  0.02160710  0.99047493  0.68209234  1
  B  B10  1  0.22723219  0.74061008  0.65682317  1
  B  B11  1  0.45886444  0.47961398  0.65995406  1
  N  N12  1  0.17105254  0.69113852  0.33936626  1
  N  N13  1  0.40064727  0.40613479  0.35203291  1
  N  N14  1  0.28170467  0.54793605  0.79452529  1
  N  N15  1  0.77866249  0.17887592  0.40590054  1
  N  N16  1  0.49621938  0.28485030  0.82121487  1
  N  N17  1  0.97536633  0.94392520  0.35885755  1
  N  N18  1  0.87327780  0.06805866  0.88044136  1
  N  N19  1  0.07039229  0.80192687  0.85028891  1
  N  N20  1  0.86418007  0.54508997  0.16504293  1
  N  N21  1  0.08390962  0.31770339  0.18054053  1
  N  N22  1  0.97686592  0.43812850  0.67729394  1
  N  N23  1  0.27400145  0.06048612  0.16251911  1
  N  N24  1  0.17760657  0.18187862  0.67656217  1
  N  N25  1  0.54882085  0.92522982  0.17908526  1
  N  N26  1  0.36415969  0.93182371  0.65256577  1
  N  N27  1  0.60240645  0.67568594  0.68406962  1
  Ti  Ti28  1  0.74241520  0.78359264  0.19404447  1
  Ti  Ti29  1  0.61413059  0.97384288  0.68480406  1
  Ti  Ti30  1  0.62354275  0.34369214  0.18696433  1
  Ti  Ti31  1  0.40936912  0.65042921  0.12656690  1
