# generated using pymatgen
data_TiAl3N4
_symmetry_space_group_name_H-M   'P 1'
_cell_length_a   8.13941141
_cell_length_b   8.16974149
_cell_length_c   5.48860799
_cell_angle_alpha   90.58730895
_cell_angle_beta   90.12778070
_cell_angle_gamma   103.27613316
_symmetry_Int_Tables_number   1
_chemical_formula_structural   TiAl3N4
_chemical_formula_sum   'Ti4 Al12 N16'
_cell_volume   355.19863789
_cell_formula_units_Z   4
loop_
 _symmetry_equiv_pos_site_id
 _symmetry_equiv_pos_as_xyz
  1  'x, y, z'
loop_
 _atom_site_type_symbol
 _atom_site_label
 _atom_site_symmetry_multiplicity
 _atom_site_fract_x
 _atom_site_fract_y
 _atom_site_fract_z
 _atom_site_occupancy
  Al  Al0  1  0.00972507  0.49830325  0.33728409  1
  Al  Al1  1  0.23653440  0.23783993  0.33991686  1
  Al  Al2  1  0.12565728  0.37276456  0.83681608  1
  Al  Al3  1  0.49604319  0.01308498  0.33171865  1
  Al  Al4  1  0.36750128  0.12554265  0.83690814  1
  Al  Al5  1  0.88701383  0.62044934  0.83460777  1
  Al  Al6  1  0.87330284  0.12428789  0.16916380  1
  Al  Al7  1  0.75390414  0.25265660  0.66627430  1
  Al  Al8  1  0.12270911  0.87347257  0.16793278  1
  Al  Al9  1  0.99898014  0.99682733  0.66618355  1
  Al  Al10  1  0.24950961  0.75189459  0.66520397  1
  Al  Al11  1  0.49839197  0.49640607  0.66922326  1
  N  N12  1  0.19090180  0.69553925  0.33813763  1
  N  N13  1  0.42510306  0.41973011  0.35184203  1
  N  N14  1  0.31689776  0.56707985  0.82524472  1
  N  N15  1  0.69440758  0.19466080  0.33858044  1
  N  N16  1  0.56336335  0.31146144  0.82740412  1
  N  N17  1  0.94448345  0.94746876  0.33025332  1
  N  N18  1  0.81762810  0.06900983  0.83088904  1
  N  N19  1  0.06761258  0.81638883  0.83325164  1
  N  N20  1  0.83539596  0.56301665  0.16455352  1
  N  N21  1  0.06619496  0.31478916  0.16707749  1
  N  N22  1  0.94750488  0.43807098  0.66710753  1
  N  N23  1  0.31094023  0.06686902  0.16555486  1
  N  N24  1  0.18549146  0.18809023  0.67426634  1
  N  N25  1  0.55945238  0.84177064  0.15036656  1
  N  N26  1  0.43031545  0.95032853  0.65806979  1
  N  N27  1  0.70007324  0.66951563  0.67615628  1
  Ti  Ti28  1  0.73191951  0.73808680  0.33086769  1
  Ti  Ti29  1  0.62034527  0.87395274  0.81187429  1
  Ti  Ti30  1  0.62160582  0.38721127  0.16311645  1
  Ti  Ti31  1  0.39109029  0.62342970  0.17415304  1
