# generated using pymatgen
data_TiSi3N4
_symmetry_space_group_name_H-M   'P 1'
_cell_length_a   7.98279702
_cell_length_b   8.47560961
_cell_length_c   4.94221769
_cell_angle_alpha   88.98233765
_cell_angle_beta   90.84683825
_cell_angle_gamma   97.14236982
_symmetry_Int_Tables_number   1
_chemical_formula_structural   TiSi3N4
_chemical_formula_sum   'Ti4 Si12 N16'
_cell_volume   331.71214328
_cell_formula_units_Z   4
loop_
 _symmetry_equiv_pos_site_id
 _symmetry_equiv_pos_as_xyz
  1  'x, y, z'
loop_
 _atom_site_type_symbol
 _atom_site_label
 _atom_site_symmetry_multiplicity
 _atom_site_fract_x
 _atom_site_fract_y
 _atom_site_fract_z
 _atom_site_occupancy
  Si  Si0  1  0.04718640  0.52239795  0.23470108  1
  Si  Si1  1  0.28632512  0.27048125  0.32273266  1
  Si  Si2  1  0.11127578  0.35305763  0.81178044  1
  Si  Si3  1  0.52433972  0.02217432  0.35340478  1
  Si  Si4  1  0.39855118  0.15783357  0.85691008  1
  Si  Si5  1  0.85897992  0.60001561  0.74077518  1
  Si  Si6  1  0.89843451  0.12786040  0.17535137  1
  Si  Si7  1  0.76402333  0.24162909  0.65928880  1
  Si  Si8  1  0.15001260  0.89419735  0.19464126  1
  Si  Si9  1  0.90368636  0.90002481  0.70280748  1
  Si  Si10  1  0.23091749  0.73219565  0.73158398  1
  Si  Si11  1  0.48697469  0.49586507  0.72890840  1
  N  N12  1  0.17181271  0.71150060  0.37554017  1
  N  N13  1  0.36614292  0.46569356  0.42662771  1
  N  N14  1  0.17244863  0.54749449  0.92066883  1
  N  N15  1  0.71081104  0.17253800  0.33192112  1
  N  N16  1  0.58351522  0.30579937  0.80558774  1
  N  N17  1  0.96915200  0.96270826  0.33845295  1
  N  N18  1  0.85728344  0.09525726  0.83715830  1
  N  N19  1  0.10089302  0.86923565  0.85802800  1
  N  N20  1  0.85187580  0.55028673  0.09592032  1
  N  N21  1  0.07194465  0.29318036  0.16388898  1
  N  N22  1  0.93278133  0.40234437  0.62058798  1
  N  N23  1  0.32397056  0.06135151  0.19051921  1
  N  N24  1  0.22726954  0.21708494  0.66977763  1
  N  N25  1  0.56232935  0.84876459  0.21181532  1
  N  N26  1  0.47489706  0.00615365  0.68612185  1
  N  N27  1  0.66421550  0.59238318  0.56284517  1
  Ti  Ti28  1  0.76949587  0.74601527  0.27427720  1
  Ti  Ti29  1  0.58075125  0.80415130  0.77404958  1
  Ti  Ti30  1  0.58741995  0.42481492  0.20661672  1
  Ti  Ti31  1  0.40028307  0.64550927  0.13670974  1
