# generated using pymatgen
data_TiN
_symmetry_space_group_name_H-M   'P 1'
_cell_length_a   8.21631789
_cell_length_b   8.21631676
_cell_length_c   6.10936542
_cell_angle_alpha   90.00007691
_cell_angle_beta   89.99985736
_cell_angle_gamma   118.07943848
_symmetry_Int_Tables_number   1
_chemical_formula_structural   TiN
_chemical_formula_sum   'Ti16 N16'
_cell_volume   363.88549253
_cell_formula_units_Z   16
loop_
 _symmetry_equiv_pos_site_id
 _symmetry_equiv_pos_as_xyz
  1  'x, y, z'
loop_
 _atom_site_type_symbol
 _atom_site_label
 _atom_site_symmetry_multiplicity
 _atom_site_fract_x
 _atom_site_fract_y
 _atom_site_fract_z
 _atom_site_occupancy
  Ti  Ti0  1  0.96995952  0.46995764  0.33353612  1
  Ti  Ti1  1  0.21996827  0.21997752  0.33353632  1
  Ti  Ti2  1  0.09501327  0.34501517  0.83355831  1
  Ti  Ti3  1  0.46999515  0.96999202  0.33353380  1
  Ti  Ti4  1  0.34503049  0.09503020  0.83354969  1
  Ti  Ti5  1  0.84502154  0.59501598  0.83355276  1
  Ti  Ti6  1  0.84502822  0.09503053  0.16644638  1
  Ti  Ti7  1  0.71999220  0.21998417  0.66646741  1
  Ti  Ti8  1  0.09501924  0.84502256  0.16644350  1
  Ti  Ti9  1  0.96996713  0.96997708  0.66646917  1
  Ti  Ti10  1  0.21996933  0.71996448  0.66645878  1
  Ti  Ti11  1  0.46998352  0.46998128  0.66646356  1
  Ti  Ti12  1  0.71998351  0.71998385  0.33353404  1
  Ti  Ti13  1  0.59503370  0.84503442  0.83355763  1
  Ti  Ti14  1  0.59503054  0.34503107  0.16644587  1
  Ti  Ti15  1  0.34502291  0.59502065  0.16644651  1
  N  N16  1  0.21997240  0.71997649  0.33303320  1
  N  N17  1  0.46998922  0.46998019  0.33304445  1
  N  N18  1  0.34501258  0.59500440  0.83304226  1
  N  N19  1  0.71998981  0.21999092  0.33304397  1
  N  N20  1  0.59501975  0.34501137  0.83304407  1
  N  N21  1  0.96997971  0.96999060  0.33304749  1
  N  N22  1  0.84501602  0.09501800  0.83305394  1
  N  N23  1  0.09500662  0.84501525  0.83303596  1
  N  N24  1  0.84501866  0.59501402  0.16695682  1
  N  N25  1  0.09500623  0.34501493  0.16695902  1
  N  N26  1  0.96998355  0.46998110  0.66695453  1
  N  N27  1  0.34501123  0.09501349  0.16695824  1
  N  N28  1  0.21997974  0.21998703  0.66695916  1
  N  N29  1  0.59501856  0.84501752  0.16695752  1
  N  N30  1  0.46998901  0.96998440  0.66694985  1
  N  N31  1  0.71998835  0.71998168  0.66695966  1
