# generated using pymatgen
data_TiV3N4
_symmetry_space_group_name_H-M   'P 1'
_cell_length_a   8.00152257
_cell_length_b   8.00067656
_cell_length_c   5.93542490
_cell_angle_alpha   90.01167314
_cell_angle_beta   90.02130710
_cell_angle_gamma   118.35551205
_symmetry_Int_Tables_number   1
_chemical_formula_structural   TiV3N4
_chemical_formula_sum   'Ti4 V12 N16'
_cell_volume   334.38166520
_cell_formula_units_Z   4
loop_
 _symmetry_equiv_pos_site_id
 _symmetry_equiv_pos_as_xyz
  1  'x, y, z'
loop_
 _atom_site_type_symbol
 _atom_site_label
 _atom_site_symmetry_multiplicity
 _atom_site_fract_x
 _atom_site_fract_y
 _atom_site_fract_z
 _atom_site_occupancy
  V  V0  1  0.97008686  0.46919408  0.33485066  1
  V  V1  1  0.21704091  0.21583485  0.33683042  1
  V  V2  1  0.09289232  0.34401911  0.83074896  1
  V  V3  1  0.46687844  0.97127430  0.33550330  1
  V  V4  1  0.34335163  0.09410255  0.82860042  1
  V  V5  1  0.84808483  0.59508654  0.83024445  1
  V  V6  1  0.84940656  0.09883956  0.16947495  1
  V  V7  1  0.72185773  0.22199937  0.66431245  1
  V  V8  1  0.09732820  0.84734149  0.16402013  1
  V  V9  1  0.97325195  0.97237942  0.67059721  1
  V  V10  1  0.21704332  0.71996048  0.66458506  1
  V  V11  1  0.46723285  0.46610304  0.66812675  1
  N  N12  1  0.21675094  0.72213769  0.33422654  1
  N  N13  1  0.46907597  0.46766937  0.33691466  1
  N  N14  1  0.34242973  0.59387858  0.82949381  1
  N  N15  1  0.72209221  0.21794580  0.33410336  1
  N  N16  1  0.59521193  0.34416621  0.82632448  1
  N  N17  1  0.97262640  0.97134094  0.33520729  1
  N  N18  1  0.84661583  0.09761038  0.83484766  1
  N  N19  1  0.09547795  0.84510536  0.83260332  1
  N  N20  1  0.84880260  0.59433236  0.16327235  1
  N  N21  1  0.09403070  0.34262911  0.16702183  1
  N  N22  1  0.97042562  0.46952932  0.66549113  1
  N  N23  1  0.34256186  0.09416941  0.16384246  1
  N  N24  1  0.21880740  0.22022490  0.66829028  1
  N  N25  1  0.59459169  0.84813312  0.17214752  1
  N  N26  1  0.46793286  0.97171373  0.66421375  1
  N  N27  1  0.72249515  0.71906944  0.67205768  1
  Ti  Ti28  1  0.72443996  0.72190102  0.33662503  1
  Ti  Ti29  1  0.59555679  0.84739620  0.83339426  1
  Ti  Ti30  1  0.59479497  0.34201794  0.16335536  1
  Ti  Ti31  1  0.34082384  0.59289428  0.16867247  1
