# generated using pymatgen
data_TiCr3N4
_symmetry_space_group_name_H-M   'P 1'
_cell_length_a   7.95446518
_cell_length_b   7.99855344
_cell_length_c   5.66616493
_cell_angle_alpha   89.85557251
_cell_angle_beta   90.33175509
_cell_angle_gamma   118.83093984
_symmetry_Int_Tables_number   1
_chemical_formula_structural   TiCr3N4
_chemical_formula_sum   'Ti4 Cr12 N16'
_cell_volume   315.81405760
_cell_formula_units_Z   4
loop_
 _symmetry_equiv_pos_site_id
 _symmetry_equiv_pos_as_xyz
  1  'x, y, z'
loop_
 _atom_site_type_symbol
 _atom_site_label
 _atom_site_symmetry_multiplicity
 _atom_site_fract_x
 _atom_site_fract_y
 _atom_site_fract_z
 _atom_site_occupancy
  Cr  Cr0  1  0.97227049  0.49503936  0.32184874  1
  Cr  Cr1  1  0.21960172  0.21014836  0.35132987  1
  Cr  Cr2  1  0.08748036  0.33585723  0.87635401  1
  Cr  Cr3  1  0.46298524  0.99281632  0.32085198  1
  Cr  Cr4  1  0.37519293  0.10887304  0.79843184  1
  Cr  Cr5  1  0.87596290  0.58803115  0.81512469  1
  Cr  Cr6  1  0.87772563  0.09026159  0.18588155  1
  Cr  Cr7  1  0.70620973  0.20523967  0.63017816  1
  Cr  Cr8  1  0.08549596  0.83212561  0.11864824  1
  Cr  Cr9  1  0.96673909  0.99787004  0.68223811  1
  Cr  Cr10  1  0.19792595  0.69389124  0.66798625  1
  Cr  Cr11  1  0.44081292  0.46207028  0.68036402  1
  N  N12  1  0.20976581  0.73855804  0.33713596  1
  N  N13  1  0.47304317  0.46347774  0.34524144  1
  N  N14  1  0.33519123  0.59238427  0.85020555  1
  N  N15  1  0.72553645  0.21480631  0.29752470  1
  N  N16  1  0.60555820  0.35459245  0.79008214  1
  N  N17  1  0.99426559  0.95921331  0.34612490  1
  N  N18  1  0.83590321  0.11207356  0.84705877  1
  N  N19  1  0.09140674  0.84681468  0.78268919  1
  N  N20  1  0.83888536  0.60141010  0.14710569  1
  N  N21  1  0.08864766  0.34347023  0.21692569  1
  N  N22  1  0.97520242  0.44428751  0.65590338  1
  N  N23  1  0.33264219  0.09575813  0.13707726  1
  N  N24  1  0.21621958  0.21573611  0.69236412  1
  N  N25  1  0.60019188  0.85342530  0.20167311  1
  N  N26  1  0.46533142  0.95809408  0.64993836  1
  N  N27  1  0.72622649  0.71952480  0.70345423  1
  Ti  Ti28  1  0.73039555  0.72232849  0.35736190  1
  Ti  Ti29  1  0.59657394  0.85053362  0.84687378  1
  Ti  Ti30  1  0.59198532  0.34446707  0.14555606  1
  Ti  Ti31  1  0.33862490  0.59682032  0.20046627  1
