# generated using pymatgen
data_TiMn3N4
_symmetry_space_group_name_H-M   'P 1'
_cell_length_a   7.82507743
_cell_length_b   7.83829861
_cell_length_c   5.44853630
_cell_angle_alpha   88.79205377
_cell_angle_beta   90.07276586
_cell_angle_gamma   106.76056438
_symmetry_Int_Tables_number   1
_chemical_formula_structural   TiMn3N4
_chemical_formula_sum   'Ti4 Mn12 N16'
_cell_volume   319.91553685
_cell_formula_units_Z   4
loop_
 _symmetry_equiv_pos_site_id
 _symmetry_equiv_pos_as_xyz
  1  'x, y, z'
loop_
 _atom_site_type_symbol
 _atom_site_label
 _atom_site_symmetry_multiplicity
 _atom_site_fract_x
 _atom_site_fract_y
 _atom_site_fract_z
 _atom_site_occupancy
  Mn  Mn0  1  0.98137981  0.46418567  0.31515398  1
  Mn  Mn1  1  0.26860161  0.26882931  0.36706211  1
  Mn  Mn2  1  0.14072389  0.41598156  0.81028033  1
  Mn  Mn3  1  0.47622162  0.99792095  0.33609953  1
  Mn  Mn4  1  0.36987650  0.14042933  0.80834948  1
  Mn  Mn5  1  0.89642211  0.62454915  0.83273107  1
  Mn  Mn6  1  0.91760381  0.13140079  0.14768152  1
  Mn  Mn7  1  0.78458899  0.23069920  0.64663258  1
  Mn  Mn8  1  0.13574731  0.92416843  0.19397719  1
  Mn  Mn9  1  0.00737978  0.99651046  0.67277119  1
  Mn  Mn10  1  0.22901363  0.77696581  0.64588832  1
  Mn  Mn11  1  0.46786944  0.47184245  0.68467952  1
  N  N12  1  0.13912471  0.70362459  0.33792633  1
  N  N13  1  0.48274525  0.46035635  0.34237053  1
  N  N14  1  0.33596969  0.61870085  0.82712799  1
  N  N15  1  0.71555427  0.15161466  0.32981974  1
  N  N16  1  0.59235845  0.30376287  0.77090351  1
  N  N17  1  0.92628698  0.93244456  0.34705180  1
  N  N18  1  0.81322404  0.05040427  0.85248550  1
  N  N19  1  0.06958582  0.82927589  0.88137756  1
  N  N20  1  0.82032955  0.54697997  0.13899537  1
  N  N21  1  0.11303503  0.33810646  0.14401175  1
  N  N22  1  0.94263214  0.45126582  0.64848123  1
  N  N23  1  0.34268829  0.11609469  0.15222411  1
  N  N24  1  0.18067994  0.20968128  0.68587326  1
  N  N25  1  0.55030548  0.81374091  0.19887072  1
  N  N26  1  0.43883388  0.96573252  0.66036976  1
  N  N27  1  0.69244010  0.66819853  0.70014536  1
  Ti  Ti28  1  0.70799644  0.68971797  0.34334372  1
  Ti  Ti29  1  0.57206916  0.82879337  0.84355412  1
  Ti  Ti30  1  0.60467223  0.31961112  0.13945491  1
  Ti  Ti31  1  0.32404004  0.59841019  0.19430591  1
