# generated using pymatgen
data_TiFe3N4
_symmetry_space_group_name_H-M   'P 1'
_cell_length_a   7.90104578
_cell_length_b   7.90923531
_cell_length_c   5.25742502
_cell_angle_alpha   88.93023061
_cell_angle_beta   88.98344717
_cell_angle_gamma   104.37838921
_symmetry_Int_Tables_number   1
_chemical_formula_structural   TiFe3N4
_chemical_formula_sum   'Ti4 Fe12 N16'
_cell_volume   318.11155545
_cell_formula_units_Z   4
loop_
 _symmetry_equiv_pos_site_id
 _symmetry_equiv_pos_as_xyz
  1  'x, y, z'
loop_
 _atom_site_type_symbol
 _atom_site_label
 _atom_site_symmetry_multiplicity
 _atom_site_fract_x
 _atom_site_fract_y
 _atom_site_fract_z
 _atom_site_occupancy
  Fe  Fe0  1  0.99889153  0.48252694  0.33660187  1
  Fe  Fe1  1  0.26501989  0.26945814  0.33941233  1
  Fe  Fe2  1  0.15253395  0.41010920  0.80453517  1
  Fe  Fe3  1  0.47200294  0.99455824  0.34946417  1
  Fe  Fe4  1  0.36797046  0.14807807  0.80472093  1
  Fe  Fe5  1  0.89845111  0.61824309  0.83631160  1
  Fe  Fe6  1  0.90768374  0.13513011  0.19755663  1
  Fe  Fe7  1  0.77507170  0.23127798  0.65775471  1
  Fe  Fe8  1  0.12900385  0.91356682  0.18257829  1
  Fe  Fe9  1  0.00454036  0.00413113  0.65912453  1
  Fe  Fe10  1  0.22548736  0.76777380  0.66228123  1
  Fe  Fe11  1  0.49461327  0.49080128  0.66708467  1
  N  N12  1  0.14371437  0.70679247  0.33849278  1
  N  N13  1  0.47217249  0.46137645  0.32122677  1
  N  N14  1  0.33848583  0.60711250  0.79656319  1
  N  N15  1  0.69473540  0.13585724  0.35214840  1
  N  N16  1  0.58458697  0.30732021  0.77817525  1
  N  N17  1  0.92084196  0.92536704  0.34139473  1
  N  N18  1  0.83312977  0.06687778  0.86731903  1
  N  N19  1  0.05720226  0.82814107  0.86382130  1
  N  N20  1  0.81749892  0.53031891  0.15088957  1
  N  N21  1  0.09824534  0.33924441  0.14219277  1
  N  N22  1  0.94548788  0.43314060  0.67342273  1
  N  N23  1  0.33444362  0.09891150  0.15057362  1
  N  N24  1  0.17723223  0.20500788  0.66571024  1
  N  N25  1  0.54490823  0.81204507  0.18068783  1
  N  N26  1  0.42031522  0.95145733  0.68532017  1
  N  N27  1  0.69894705  0.67374731  0.70577827  1
  Ti  Ti28  1  0.71020336  0.69091762  0.33286996  1
  Ti  Ti29  1  0.61883214  0.87399641  0.83229653  1
  Ti  Ti30  1  0.60776711  0.31626051  0.15144309  1
  Ti  Ti31  1  0.32997968  0.61045286  0.17224762  1
