# generated using pymatgen
data_TiCo3N4
_symmetry_space_group_name_H-M   'P 1'
_cell_length_a   7.97124259
_cell_length_b   7.92782481
_cell_length_c   5.17374812
_cell_angle_alpha   89.15883887
_cell_angle_beta   88.77648511
_cell_angle_gamma   99.84430694
_symmetry_Int_Tables_number   1
_chemical_formula_structural   TiCo3N4
_chemical_formula_sum   'Ti4 Co12 N16'
_cell_volume   322.00973799
_cell_formula_units_Z   4
loop_
 _symmetry_equiv_pos_site_id
 _symmetry_equiv_pos_as_xyz
  1  'x, y, z'
loop_
 _atom_site_type_symbol
 _atom_site_label
 _atom_site_symmetry_multiplicity
 _atom_site_fract_x
 _atom_site_fract_y
 _atom_site_fract_z
 _atom_site_occupancy
  Co  Co0  1  0.00286681  0.46887022  0.35451436  1
  Co  Co1  1  0.26580969  0.27161549  0.32454831  1
  Co  Co2  1  0.16490766  0.38118866  0.82620290  1
  Co  Co3  1  0.47326326  0.00128004  0.32529307  1
  Co  Co4  1  0.35788697  0.13773508  0.84170502  1
  Co  Co5  1  0.86141425  0.60606000  0.81620787  1
  Co  Co6  1  0.88256338  0.14100553  0.18766399  1
  Co  Co7  1  0.76879173  0.25793776  0.66709533  1
  Co  Co8  1  0.12543391  0.87465251  0.15540588  1
  Co  Co9  1  0.01306196  0.98823650  0.67964727  1
  Co  Co10  1  0.23719328  0.77884071  0.65322159  1
  Co  Co11  1  0.50035816  0.49578252  0.68705200  1
  N  N12  1  0.15286210  0.67793794  0.34411686  1
  N  N13  1  0.45364128  0.45537005  0.33433718  1
  N  N14  1  0.31602257  0.59260144  0.80018642  1
  N  N15  1  0.67772721  0.15122839  0.36523997  1
  N  N16  1  0.56252561  0.29497424  0.81156202  1
  N  N17  1  0.95248251  0.95307114  0.34068365  1
  N  N18  1  0.84083729  0.08135428  0.85064664  1
  N  N19  1  0.03829184  0.78502615  0.84312836  1
  N  N20  1  0.82430143  0.54190401  0.16641096  1
  N  N21  1  0.07692964  0.30574977  0.15144286  1
  N  N22  1  0.96060330  0.42822551  0.70016452  1
  N  N23  1  0.29398778  0.07139117  0.17425558  1
  N  N24  1  0.17815732  0.18429015  0.64940134  1
  N  N25  1  0.56666429  0.81848267  0.15852236  1
  N  N26  1  0.41924509  0.95536715  0.66632677  1
  N  N27  1  0.67690716  0.69291282  0.66230487  1
  Ti  Ti28  1  0.76851910  0.74983170  0.31763769  1
  Ti  Ti29  1  0.63279900  0.90657421  0.81555101  1
  Ti  Ti30  1  0.63140141  0.35356798  0.16596013  1
  Ti  Ti31  1  0.36254304  0.63693419  0.16356322  1
