# generated using pymatgen
data_TiNi3N4
_symmetry_space_group_name_H-M   'P 1'
_cell_length_a   8.08017295
_cell_length_b   7.86797922
_cell_length_c   5.31770703
_cell_angle_alpha   90.61452907
_cell_angle_beta   88.41030212
_cell_angle_gamma   101.38681749
_symmetry_Int_Tables_number   1
_chemical_formula_structural   TiNi3N4
_chemical_formula_sum   'Ti4 Ni12 N16'
_cell_volume   331.28458141
_cell_formula_units_Z   4
loop_
 _symmetry_equiv_pos_site_id
 _symmetry_equiv_pos_as_xyz
  1  'x, y, z'
loop_
 _atom_site_type_symbol
 _atom_site_label
 _atom_site_symmetry_multiplicity
 _atom_site_fract_x
 _atom_site_fract_y
 _atom_site_fract_z
 _atom_site_occupancy
  Ni  Ni0  1  0.98946262  0.47977872  0.35656979  1
  Ni  Ni1  1  0.27505831  0.23902430  0.30958005  1
  Ni  Ni2  1  0.16371338  0.36918367  0.85071850  1
  Ni  Ni3  1  0.46215606  0.01342753  0.32005588  1
  Ni  Ni4  1  0.36222875  0.13112635  0.85884748  1
  Ni  Ni5  1  0.87936219  0.61963788  0.78879863  1
  Ni  Ni6  1  0.88435133  0.15568709  0.22145128  1
  Ni  Ni7  1  0.77431245  0.27024417  0.65456457  1
  Ni  Ni8  1  0.09790060  0.83217079  0.13428454  1
  Ni  Ni9  1  0.97913760  0.01729050  0.64763723  1
  Ni  Ni10  1  0.23393318  0.74156912  0.69818427  1
  Ni  Ni11  1  0.54564134  0.51094927  0.67350210  1
  N  N12  1  0.17282380  0.67749507  0.35703164  1
  N  N13  1  0.46058484  0.44198688  0.33825815  1
  N  N14  1  0.34255535  0.56810006  0.81334823  1
  N  N15  1  0.66945088  0.16240930  0.36270356  1
  N  N16  1  0.56278990  0.29890491  0.80917881  1
  N  N17  1  0.94432943  0.94338603  0.31367420  1
  N  N18  1  0.82291134  0.09739809  0.87733237  1
  N  N19  1  0.04639319  0.82710465  0.79522573  1
  N  N20  1  0.82525298  0.56248724  0.14934482  1
  N  N21  1  0.08690472  0.31215139  0.17751697  1
  N  N22  1  0.97740662  0.43048761  0.69661738  1
  N  N23  1  0.26978062  0.02461746  0.15339584  1
  N  N24  1  0.18706354  0.17976978  0.65202618  1
  N  N25  1  0.55353382  0.81594594  0.16654507  1
  N  N26  1  0.40497081  0.94310741  0.65869110  1
  N  N27  1  0.69861062  0.73133419  0.67838501  1
  Ti  Ti28  1  0.75054125  0.75146496  0.32220026  1
  Ti  Ti29  1  0.61415546  0.91843925  0.83954482  1
  Ti  Ti30  1  0.63830691  0.35781014  0.15383666  1
  Ti  Ti31  1  0.36437609  0.61551023  0.17094889  1
