# generated using pymatgen
data_Y3TiN4
_symmetry_space_group_name_H-M   'P 1'
_cell_length_a   9.16399358
_cell_length_b   9.15839034
_cell_length_c   6.65993350
_cell_angle_alpha   89.84086580
_cell_angle_beta   90.02786005
_cell_angle_gamma   116.62405891
_symmetry_Int_Tables_number   1
_chemical_formula_structural   Y3TiN4
_chemical_formula_sum   'Y12 Ti4 N16'
_cell_volume   499.68125509
_cell_formula_units_Z   4
loop_
 _symmetry_equiv_pos_site_id
 _symmetry_equiv_pos_as_xyz
  1  'x, y, z'
loop_
 _atom_site_type_symbol
 _atom_site_label
 _atom_site_symmetry_multiplicity
 _atom_site_fract_x
 _atom_site_fract_y
 _atom_site_fract_z
 _atom_site_occupancy
  Y  Y0  1  0.97047578  0.46909270  0.32749281  1
  Y  Y1  1  0.22810825  0.22851221  0.32449329  1
  Y  Y2  1  0.09743746  0.34608176  0.83897976  1
  Y  Y3  1  0.47528604  0.96706745  0.32922251  1
  Y  Y4  1  0.34660400  0.09424537  0.84269942  1
  Y  Y5  1  0.83905020  0.60098419  0.83619145  1
  Y  Y6  1  0.83756702  0.08647368  0.16166719  1
  Y  Y7  1  0.71780540  0.22111264  0.67561692  1
  Y  Y8  1  0.09280226  0.84087317  0.17536401  1
  Y  Y9  1  0.96215306  0.96743905  0.65721586  1
  Y  Y10  1  0.22588033  0.71755795  0.67271652  1
  Y  Y11  1  0.47138930  0.47572813  0.66739055  1
  N  N12  1  0.24379341  0.70436799  0.31758158  1
  N  N13  1  0.47943536  0.48229691  0.30681792  1
  N  N14  1  0.36037990  0.60581186  0.85937615  1
  N  N15  1  0.70611045  0.23670713  0.31908027  1
  N  N16  1  0.59550350  0.35130859  0.87214312  1
  N  N17  1  0.96069833  0.96138057  0.32396005  1
  N  N18  1  0.83719708  0.08865872  0.82811999  1
  N  N19  1  0.09337594  0.84350450  0.83439464  1
  N  N20  1  0.82039085  0.59498716  0.18351076  1
  N  N21  1  0.08720423  0.33763626  0.16792943  1
  N  N22  1  0.96698554  0.47311425  0.67096064  1
  N  N23  1  0.34464001  0.08825472  0.17505915  1
  N  N24  1  0.22522736  0.22377797  0.66603356  1
  N  N25  1  0.59837200  0.82405359  0.14707003  1
  N  N26  1  0.48360603  0.95635750  0.68718314  1
  N  N27  1  0.70188545  0.73196702  0.64432478  1
  Ti  Ti28  1  0.70387186  0.70896082  0.32230134  1
  Ti  Ti29  1  0.59003236  0.83689389  0.83052903  1
  Ti  Ti30  1  0.60463645  0.36390687  0.17340810  1
  Ti  Ti31  1  0.37209477  0.61088535  0.16116601  1
