# generated using pymatgen
data_Zr3TiN4
_symmetry_space_group_name_H-M   'P 1'
_cell_length_a   8.70238695
_cell_length_b   8.70021191
_cell_length_c   6.44182547
_cell_angle_alpha   90.01274668
_cell_angle_beta   90.00810354
_cell_angle_gamma   117.41705667
_symmetry_Int_Tables_number   1
_chemical_formula_structural   Zr3TiN4
_chemical_formula_sum   'Zr12 Ti4 N16'
_cell_volume   432.94504562
_cell_formula_units_Z   4
loop_
 _symmetry_equiv_pos_site_id
 _symmetry_equiv_pos_as_xyz
  1  'x, y, z'
loop_
 _atom_site_type_symbol
 _atom_site_label
 _atom_site_symmetry_multiplicity
 _atom_site_fract_x
 _atom_site_fract_y
 _atom_site_fract_z
 _atom_site_occupancy
  Zr  Zr0  1  0.96975628  0.46975276  0.33004406  1
  Zr  Zr1  1  0.22721386  0.22600932  0.33236668  1
  Zr  Zr2  1  0.09663940  0.34816663  0.83473866  1
  Zr  Zr3  1  0.47109370  0.96852954  0.33305015  1
  Zr  Zr4  1  0.34733155  0.09618003  0.83316760  1
  Zr  Zr5  1  0.84103184  0.59509028  0.83698412  1
  Zr  Zr6  1  0.83934127  0.08865013  0.16473546  1
  Zr  Zr7  1  0.71737583  0.21897374  0.66719285  1
  Zr  Zr8  1  0.09270331  0.84192845  0.17244533  1
  Zr  Zr9  1  0.96466200  0.96660287  0.66128775  1
  Zr  Zr10  1  0.22333152  0.72031344  0.66735619  1
  Zr  Zr11  1  0.47334128  0.47533378  0.66238610  1
  N  N12  1  0.22885507  0.71307620  0.32387345  1
  N  N13  1  0.47534508  0.47761109  0.31770033  1
  N  N14  1  0.35348143  0.59994715  0.84830197  1
  N  N15  1  0.71557249  0.22452261  0.32320551  1
  N  N16  1  0.59288621  0.34810332  0.85096549  1
  N  N17  1  0.96308679  0.96471625  0.32823647  1
  N  N18  1  0.83811488  0.08862609  0.83366072  1
  N  N19  1  0.09421460  0.84483261  0.83736344  1
  N  N20  1  0.83155263  0.59576919  0.17572379  1
  N  N21  1  0.10128736  0.34941499  0.16553454  1
  N  N22  1  0.96761008  0.47231827  0.66660736  1
  N  N23  1  0.35201338  0.09923007  0.16606155  1
  N  N24  1  0.22029259  0.22106055  0.66801078  1
  N  N25  1  0.59464747  0.83332162  0.16054402  1
  N  N26  1  0.47717877  0.96208174  0.67523138  1
  N  N27  1  0.71338243  0.72498683  0.66002871  1
  Ti  Ti28  1  0.71144506  0.71319930  0.33079237  1
  Ti  Ti29  1  0.59326684  0.84114627  0.83502933  1
  Ti  Ti30  1  0.59724302  0.34999278  0.17207284  1
  Ti  Ti31  1  0.35470196  0.60051209  0.16530101  1
