# generated using pymatgen
data_TiNb3N4
_symmetry_space_group_name_H-M   'P 1'
_cell_length_a   8.54662278
_cell_length_b   8.52683418
_cell_length_c   5.98346227
_cell_angle_alpha   90.45752341
_cell_angle_beta   91.12353858
_cell_angle_gamma   110.72738326
_symmetry_Int_Tables_number   1
_chemical_formula_structural   TiNb3N4
_chemical_formula_sum   'Ti4 Nb12 N16'
_cell_volume   407.69501418
_cell_formula_units_Z   4
loop_
 _symmetry_equiv_pos_site_id
 _symmetry_equiv_pos_as_xyz
  1  'x, y, z'
loop_
 _atom_site_type_symbol
 _atom_site_label
 _atom_site_symmetry_multiplicity
 _atom_site_fract_x
 _atom_site_fract_y
 _atom_site_fract_z
 _atom_site_occupancy
  Nb  Nb0  1  0.02633814  0.51009180  0.34939784  1
  Nb  Nb1  1  0.25018904  0.28829265  0.31449659  1
  Nb  Nb2  1  0.14840792  0.39488288  0.81758610  1
  Nb  Nb3  1  0.46690178  0.98084509  0.33038984  1
  Nb  Nb4  1  0.34188441  0.14874472  0.78813435  1
  Nb  Nb5  1  0.83518216  0.56320410  0.84046146  1
  Nb  Nb6  1  0.84932809  0.07665795  0.17342016  1
  Nb  Nb7  1  0.70120276  0.19425274  0.66496623  1
  Nb  Nb8  1  0.13707722  0.91656410  0.15244901  1
  Nb  Nb9  1  0.96499040  0.93884078  0.68707822  1
  Nb  Nb10  1  0.25473841  0.77247436  0.66949740  1
  Nb  Nb11  1  0.49027331  0.50072261  0.66936308  1
  N  N12  1  0.22665501  0.74227758  0.31838581  1
  N  N13  1  0.49113282  0.48449989  0.32408561  1
  N  N14  1  0.35877502  0.62328511  0.85782811  1
  N  N15  1  0.70078869  0.19475437  0.32805437  1
  N  N16  1  0.59220419  0.34163178  0.82789136  1
  N  N17  1  0.94507749  0.91215217  0.34131286  1
  N  N18  1  0.81745145  0.05395482  0.84201533  1
  N  N19  1  0.06007871  0.76404754  0.87314578  1
  N  N20  1  0.82649115  0.54645981  0.17824777  1
  N  N21  1  0.03350913  0.31928713  0.15120461  1
  N  N22  1  0.93016822  0.41260224  0.65496611  1
  N  N23  1  0.35677266  0.12687448  0.14726520  1
  N  N24  1  0.13612477  0.18892097  0.62767178  1
  N  N25  1  0.60559917  0.84321974  0.18315637  1
  N  N26  1  0.47602151  0.97491705  0.68115224  1
  N  N27  1  0.72681845  0.71577003  0.67587696  1
  Ti  Ti28  1  0.72301776  0.69999808  0.33745280  1
  Ti  Ti29  1  0.59381910  0.83809900  0.84098041  1
  Ti  Ti30  1  0.58770425  0.33316329  0.16606296  1
  Ti  Ti31  1  0.38527677  0.63851111  0.18600327  1
