# generated using pymatgen
data_TiMo3N4
_symmetry_space_group_name_H-M   'P 1'
_cell_length_a   8.39298982
_cell_length_b   8.23913207
_cell_length_c   5.75769784
_cell_angle_alpha   91.44851839
_cell_angle_beta   91.06255863
_cell_angle_gamma   107.36517806
_symmetry_Int_Tables_number   1
_chemical_formula_structural   TiMo3N4
_chemical_formula_sum   'Ti4 Mo12 N16'
_cell_volume   379.73987855
_cell_formula_units_Z   4
loop_
 _symmetry_equiv_pos_site_id
 _symmetry_equiv_pos_as_xyz
  1  'x, y, z'
loop_
 _atom_site_type_symbol
 _atom_site_label
 _atom_site_symmetry_multiplicity
 _atom_site_fract_x
 _atom_site_fract_y
 _atom_site_fract_z
 _atom_site_occupancy
  Mo  Mo0  1  0.02707878  0.47992558  0.36733082  1
  Mo  Mo1  1  0.25152132  0.29815549  0.35230689  1
  Mo  Mo2  1  0.17965373  0.42191377  0.81841261  1
  Mo  Mo3  1  0.45611336  0.98617523  0.32538942  1
  Mo  Mo4  1  0.32972726  0.12198582  0.79009187  1
  Mo  Mo5  1  0.82214905  0.54501043  0.83603896  1
  Mo  Mo6  1  0.89555515  0.10950735  0.20470945  1
  Mo  Mo7  1  0.74346763  0.22267535  0.62802854  1
  Mo  Mo8  1  0.14365282  0.91875205  0.13848387  1
  Mo  Mo9  1  0.96708595  0.96246584  0.69861086  1
  Mo  Mo10  1  0.25014112  0.77606458  0.66201607  1
  Mo  Mo11  1  0.51386693  0.50590409  0.67186033  1
  N  N12  1  0.16164213  0.71552595  0.31772436  1
  N  N13  1  0.48493880  0.49049884  0.32763432  1
  N  N14  1  0.37574733  0.63626327  0.84900907  1
  N  N15  1  0.68241902  0.16959299  0.28919248  1
  N  N16  1  0.58239172  0.31543081  0.81567750  1
  N  N17  1  0.94504645  0.90851126  0.33952796  1
  N  N18  1  0.80811371  0.07190234  0.86613123  1
  N  N19  1  0.03875777  0.76759505  0.84805771  1
  N  N20  1  0.82152622  0.53028076  0.17466957  1
  N  N21  1  0.06499141  0.31104360  0.10785661  1
  N  N22  1  0.95322715  0.40046705  0.68889488  1
  N  N23  1  0.34239232  0.13382836  0.14255131  1
  N  N24  1  0.13993956  0.18279454  0.64892798  1
  N  N25  1  0.58917314  0.83516101  0.19685089  1
  N  N26  1  0.47196349  0.97472215  0.66602807  1
  N  N27  1  0.72891570  0.72291984  0.68330493  1
  Ti  Ti28  1  0.72452403  0.69505694  0.33810872  1
  Ti  Ti29  1  0.59763253  0.84926046  0.85546286  1
  Ti  Ti30  1  0.58140899  0.33257002  0.15306274  1
  Ti  Ti31  1  0.36523540  0.64803916  0.19804714  1
