# generated using pymatgen
data_Hf3TiN4
_symmetry_space_group_name_H-M   'P 1'
_cell_length_a   8.63002065
_cell_length_b   8.62957734
_cell_length_c   6.40690157
_cell_angle_alpha   90.01032433
_cell_angle_beta   90.01778021
_cell_angle_gamma   117.78222296
_symmetry_Int_Tables_number   1
_chemical_formula_structural   Hf3TiN4
_chemical_formula_sum   'Hf12 Ti4 N16'
_cell_volume   422.14142730
_cell_formula_units_Z   4
loop_
 _symmetry_equiv_pos_site_id
 _symmetry_equiv_pos_as_xyz
  1  'x, y, z'
loop_
 _atom_site_type_symbol
 _atom_site_label
 _atom_site_symmetry_multiplicity
 _atom_site_fract_x
 _atom_site_fract_y
 _atom_site_fract_z
 _atom_site_occupancy
  Hf  Hf0  1  0.96971712  0.46877361  0.32613283  1
  Hf  Hf1  1  0.22906409  0.22467102  0.33223271  1
  Hf  Hf2  1  0.09633334  0.35019178  0.83794178  1
  Hf  Hf3  1  0.46997696  0.96930416  0.33476544  1
  Hf  Hf4  1  0.34614575  0.09777107  0.83210161  1
  Hf  Hf5  1  0.84256611  0.59225867  0.84130807  1
  Hf  Hf6  1  0.83891280  0.08766769  0.15940800  1
  Hf  Hf7  1  0.71620938  0.21923262  0.66937249  1
  Hf  Hf8  1  0.09073266  0.84274980  0.17390597  1
  Hf  Hf9  1  0.96553999  0.96453258  0.66290468  1
  Hf  Hf10  1  0.22338096  0.72152333  0.66686258  1
  Hf  Hf11  1  0.47458887  0.47644529  0.66074224  1
  N  N12  1  0.22567344  0.71562588  0.32849033  1
  N  N13  1  0.47245107  0.47602958  0.32177091  1
  N  N14  1  0.35016030  0.59733808  0.84018536  1
  N  N15  1  0.71982752  0.21869852  0.33146914  1
  N  N16  1  0.59231654  0.34840380  0.84543027  1
  N  N17  1  0.96406903  0.96990244  0.33152161  1
  N  N18  1  0.84249786  0.09141657  0.82677791  1
  N  N19  1  0.09438476  0.84382752  0.83972683  1
  N  N20  1  0.83670103  0.59723650  0.17774632  1
  N  N21  1  0.09941760  0.34443323  0.16828151  1
  N  N22  1  0.96832889  0.47158144  0.66096331  1
  N  N23  1  0.34915385  0.09532471  0.16356402  1
  N  N24  1  0.21887768  0.22405154  0.66712286  1
  N  N25  1  0.59299426  0.84025824  0.16076080  1
  N  N26  1  0.47421562  0.96550296  0.67470656  1
  N  N27  1  0.71850914  0.71991216  0.66197680  1
  Ti  Ti28  1  0.71074180  0.71479890  0.33013238  1
  Ti  Ti29  1  0.59353751  0.83986895  0.83431845  1
  Ti  Ti30  1  0.59889043  0.34928826  0.17320724  1
  Ti  Ti31  1  0.35408368  0.60137912  0.16416905  1
