# generated using pymatgen
data_Ta3TiN4
_symmetry_space_group_name_H-M   'P 1'
_cell_length_a   8.76042576
_cell_length_b   8.70834256
_cell_length_c   5.47881906
_cell_angle_alpha   90.25683041
_cell_angle_beta   89.66289062
_cell_angle_gamma   96.92889808
_symmetry_Int_Tables_number   1
_chemical_formula_structural   Ta3TiN4
_chemical_formula_sum   'Ta12 Ti4 N16'
_cell_volume   414.90967954
_cell_formula_units_Z   4
loop_
 _symmetry_equiv_pos_site_id
 _symmetry_equiv_pos_as_xyz
  1  'x, y, z'
loop_
 _atom_site_type_symbol
 _atom_site_label
 _atom_site_symmetry_multiplicity
 _atom_site_fract_x
 _atom_site_fract_y
 _atom_site_fract_z
 _atom_site_occupancy
  Ta  Ta0  1  0.01816870  0.50707997  0.32245726  1
  Ta  Ta1  1  0.26375505  0.29570564  0.31865687  1
  Ta  Ta2  1  0.15369049  0.41313369  0.82347081  1
  Ta  Ta3  1  0.49010477  0.99258298  0.34030925  1
  Ta  Ta4  1  0.34420783  0.14088975  0.79823412  1
  Ta  Ta5  1  0.88314045  0.62113963  0.82291622  1
  Ta  Ta6  1  0.88345695  0.12610041  0.19251014  1
  Ta  Ta7  1  0.77198660  0.23821202  0.67201759  1
  Ta  Ta8  1  0.15172656  0.90739236  0.16837657  1
  Ta  Ta9  1  0.00718185  0.00218544  0.66811239  1
  Ta  Ta10  1  0.25783410  0.79176428  0.67495836  1
  Ta  Ta11  1  0.48936445  0.47766437  0.66583123  1
  N  N12  1  0.16615087  0.69583370  0.34585725  1
  N  N13  1  0.46263860  0.45106979  0.30285484  1
  N  N14  1  0.32807056  0.59472557  0.83286362  1
  N  N15  1  0.66442607  0.17408107  0.34069908  1
  N  N16  1  0.56093862  0.28882231  0.81963482  1
  N  N17  1  0.92667901  0.91104198  0.32974188  1
  N  N18  1  0.80308997  0.03920633  0.85324937  1
  N  N19  1  0.04477525  0.79613700  0.85686819  1
  N  N20  1  0.80659907  0.54794528  0.16348855  1
  N  N21  1  0.04686000  0.29735908  0.13696496  1
  N  N22  1  0.92981929  0.41753712  0.66101443  1
  N  N23  1  0.32181946  0.09060699  0.16353226  1
  N  N24  1  0.14996735  0.19726982  0.63734847  1
  N  N25  1  0.56542322  0.80230586  0.18878229  1
  N  N26  1  0.46315961  0.94122544  0.69803471  1
  N  N27  1  0.66945417  0.66730408  0.67178664  1
  Ti  Ti28  1  0.76079457  0.73685900  0.34298178  1
  Ti  Ti29  1  0.64229900  0.86100298  0.85468771  1
  Ti  Ti30  1  0.64740705  0.36658828  0.14963789  1
  Ti  Ti31  1  0.36501047  0.64922779  0.18212045  1
