# generated using pymatgen
data_TiW3N4
_symmetry_space_group_name_H-M   'P 1'
_cell_length_a   8.54976140
_cell_length_b   8.59692218
_cell_length_c   5.22814134
_cell_angle_alpha   90.44322006
_cell_angle_beta   90.04497389
_cell_angle_gamma   100.54460545
_symmetry_Int_Tables_number   1
_chemical_formula_structural   TiW3N4
_chemical_formula_sum   'Ti4 W12 N16'
_cell_volume   377.77529289
_cell_formula_units_Z   4
loop_
 _symmetry_equiv_pos_site_id
 _symmetry_equiv_pos_as_xyz
  1  'x, y, z'
loop_
 _atom_site_type_symbol
 _atom_site_label
 _atom_site_symmetry_multiplicity
 _atom_site_fract_x
 _atom_site_fract_y
 _atom_site_fract_z
 _atom_site_occupancy
  W  W0  1  0.03814231  0.47464594  0.33502625  1
  W  W1  1  0.31080515  0.32467913  0.31797212  1
  W  W2  1  0.19994895  0.44238620  0.81400606  1
  W  W3  1  0.45225559  0.99759650  0.34354867  1
  W  W4  1  0.35170266  0.16418333  0.83751101  1
  W  W5  1  0.87837225  0.58314526  0.83014544  1
  W  W6  1  0.89698194  0.12583001  0.16583043  1
  W  W7  1  0.78553388  0.23238704  0.65677388  1
  W  W8  1  0.11346225  0.90519508  0.16049195  1
  W  W9  1  0.99938949  0.02106898  0.65262986  1
  W  W10  1  0.22451094  0.78954528  0.68039021  1
  W  W11  1  0.53155612  0.47282904  0.69331922  1
  N  N12  1  0.12740786  0.70187859  0.33193554  1
  N  N13  1  0.51020041  0.50183254  0.30959279  1
  N  N14  1  0.38089568  0.63768112  0.81982988  1
  N  N15  1  0.67248324  0.12987450  0.32419123  1
  N  N16  1  0.57648715  0.25780776  0.81764313  1
  N  N17  1  0.88883684  0.89605620  0.31943246  1
  N  N18  1  0.77640967  0.01421880  0.82558505  1
  N  N19  1  0.00143941  0.80197770  0.81223240  1
  N  N20  1  0.83493993  0.54019357  0.18504501  1
  N  N21  1  0.08465046  0.30276374  0.11055252  1
  N  N22  1  0.96869175  0.40433603  0.69346158  1
  N  N23  1  0.28037307  0.09365214  0.19097412  1
  N  N24  1  0.17692028  0.21644731  0.62873553  1
  N  N25  1  0.55595355  0.82806962  0.20158406  1
  N  N26  1  0.43074181  0.96502350  0.71143278  1
  N  N27  1  0.70429750  0.68366114  0.68981218  1
  Ti  Ti28  1  0.70767139  0.69388394  0.32384780  1
  Ti  Ti29  1  0.57876951  0.83247692  0.83730375  1
  Ti  Ti30  1  0.65226818  0.34143630  0.17194234  1
  Ti  Ti31  1  0.34790076  0.66323681  0.20722077  1
