# generated using pymatgen
data_TiRe3N4
_symmetry_space_group_name_H-M   'P 1'
_cell_length_a   8.54692401
_cell_length_b   8.71449136
_cell_length_c   4.91736322
_cell_angle_alpha   89.35242371
_cell_angle_beta   89.10982785
_cell_angle_gamma   92.73704787
_symmetry_Int_Tables_number   1
_chemical_formula_structural   TiRe3N4
_chemical_formula_sum   'Ti4 Re12 N16'
_cell_volume   365.76694404
_cell_formula_units_Z   4
loop_
 _symmetry_equiv_pos_site_id
 _symmetry_equiv_pos_as_xyz
  1  'x, y, z'
loop_
 _atom_site_type_symbol
 _atom_site_label
 _atom_site_symmetry_multiplicity
 _atom_site_fract_x
 _atom_site_fract_y
 _atom_site_fract_z
 _atom_site_occupancy
  Re  Re0  1  0.02519860  0.50298521  0.33411447  1
  Re  Re1  1  0.28167616  0.30909839  0.31712778  1
  Re  Re2  1  0.15406403  0.40061276  0.82790428  1
  Re  Re3  1  0.46289359  0.02037272  0.31377148  1
  Re  Re4  1  0.40734398  0.20380634  0.80919016  1
  Re  Re5  1  0.91010381  0.59895767  0.82422670  1
  Re  Re6  1  0.89774526  0.10605989  0.17565217  1
  Re  Re7  1  0.77323856  0.20449944  0.68810273  1
  Re  Re8  1  0.13256136  0.91081711  0.16647671  1
  Re  Re9  1  0.01666191  0.00462528  0.66626594  1
  Re  Re10  1  0.26084278  0.80853898  0.67433577  1
  Re  Re11  1  0.48732063  0.53654802  0.67323446  1
  N  N12  1  0.15920338  0.69817225  0.34508872  1
  N  N13  1  0.45852469  0.47839947  0.28591915  1
  N  N14  1  0.28746305  0.59492587  0.82836217  1
  N  N15  1  0.68032122  0.11912130  0.34093598  1
  N  N16  1  0.60435868  0.34931795  0.76583490  1
  N  N17  1  0.91053693  0.89041674  0.34608903  1
  N  N18  1  0.79866667  0.99273847  0.84886617  1
  N  N19  1  0.04042842  0.79096591  0.84697763  1
  N  N20  1  0.80776121  0.50141996  0.16229663  1
  N  N21  1  0.05666603  0.29192994  0.16327122  1
  N  N22  1  0.93126042  0.38314167  0.67959092  1
  N  N23  1  0.28215084  0.10138675  0.13275564  1
  N  N24  1  0.18217091  0.19305739  0.64764276  1
  N  N25  1  0.57216007  0.82643368  0.20796951  1
  N  N26  1  0.41410406  0.98229127  0.70484460  1
  N  N27  1  0.69344807  0.65828259  0.70957966  1
  Ti  Ti28  1  0.75340152  0.70512323  0.32426220  1
  Ti  Ti29  1  0.59972636  0.86247400  0.81693989  1
  Ti  Ti30  1  0.62571547  0.33319890  0.18735327  1
  Ti  Ti31  1  0.37228132  0.68028081  0.18501729  1
