# generated using pymatgen
data_TiOs3N4
_symmetry_space_group_name_H-M   'P 1'
_cell_length_a   8.43440779
_cell_length_b   8.82189056
_cell_length_c   4.87109747
_cell_angle_alpha   89.49956043
_cell_angle_beta   89.12849221
_cell_angle_gamma   92.09519017
_symmetry_Int_Tables_number   1
_chemical_formula_structural   TiOs3N4
_chemical_formula_sum   'Ti4 Os12 N16'
_cell_volume   362.14594653
_cell_formula_units_Z   4
loop_
 _symmetry_equiv_pos_site_id
 _symmetry_equiv_pos_as_xyz
  1  'x, y, z'
loop_
 _atom_site_type_symbol
 _atom_site_label
 _atom_site_symmetry_multiplicity
 _atom_site_fract_x
 _atom_site_fract_y
 _atom_site_fract_z
 _atom_site_occupancy
  Os  Os0  1  0.02454911  0.50368959  0.33218700  1
  Os  Os1  1  0.27537864  0.30550195  0.31460981  1
  Os  Os2  1  0.14964060  0.40309768  0.82236760  1
  Os  Os3  1  0.46966890  0.02287908  0.30296359  1
  Os  Os4  1  0.40797900  0.19434253  0.79782410  1
  Os  Os5  1  0.91249793  0.59487356  0.83991373  1
  Os  Os6  1  0.89912923  0.10350849  0.16911725  1
  Os  Os7  1  0.76678500  0.20766782  0.69678226  1
  Os  Os8  1  0.13980692  0.91162595  0.16734774  1
  Os  Os9  1  0.01604533  0.00653644  0.67004495  1
  Os  Os10  1  0.25965015  0.80506936  0.68209815  1
  Os  Os11  1  0.48703317  0.54564834  0.66677416  1
  N  N12  1  0.16112161  0.70138809  0.35058787  1
  N  N13  1  0.45198143  0.46965506  0.28295928  1
  N  N14  1  0.28783274  0.59527668  0.84652905  1
  N  N15  1  0.68004879  0.12267590  0.33769338  1
  N  N16  1  0.59260231  0.35111313  0.76552246  1
  N  N17  1  0.91950089  0.89467536  0.34232491  1
  N  N18  1  0.79765561  0.99662829  0.84350967  1
  N  N19  1  0.03669496  0.79498906  0.84815224  1
  N  N20  1  0.80141057  0.49874484  0.17159881  1
  N  N21  1  0.05044822  0.29510288  0.16139347  1
  N  N22  1  0.92369158  0.38797782  0.66834913  1
  N  N23  1  0.28370178  0.10207519  0.13060654  1
  N  N24  1  0.18234271  0.19378768  0.65163657  1
  N  N25  1  0.57578541  0.82284563  0.20951569  1
  N  N26  1  0.42073127  0.97531691  0.69526577  1
  N  N27  1  0.69560975  0.66285949  0.70765272  1
  Ti  Ti28  1  0.76210055  0.70412354  0.32395167  1
  Ti  Ti29  1  0.60036063  0.85980977  0.81725460  1
  Ti  Ti30  1  0.62929763  0.32902035  0.18535763  1
  Ti  Ti31  1  0.37891756  0.67749350  0.19810819  1
