# generated using pymatgen
data_AlFeCoNiAg
_symmetry_space_group_name_H-M   'P 1'
_cell_length_a   5.80398785
_cell_length_b   5.92202103
_cell_length_c   7.54004134
_cell_angle_alpha   90.49191083
_cell_angle_beta   89.86513402
_cell_angle_gamma   88.66431837
_symmetry_Int_Tables_number   1
_chemical_formula_structural   AlFeCoNiAg
_chemical_formula_sum   'Al4 Fe4 Co4 Ni4 Ag4'
_cell_volume   259.08049857
_cell_formula_units_Z   4
loop_
 _symmetry_equiv_pos_site_id
 _symmetry_equiv_pos_as_xyz
  1  'x, y, z'
loop_
 _atom_site_type_symbol
 _atom_site_label
 _atom_site_symmetry_multiplicity
 _atom_site_fract_x
 _atom_site_fract_y
 _atom_site_fract_z
 _atom_site_occupancy
  Al  Al0  1  0.09144974  0.27908900  0.73955146  1
  Al  Al1  1  0.19979510  0.59045221  0.01009021  1
  Al  Al2  1  0.30008749  0.89961652  0.26314581  1
  Al  Al3  1  0.43490939  0.18781604  0.99582421  1
  Co  Co4  1  0.36119042  0.88758755  0.75850075  1
  Co  Co5  1  0.48576706  0.49046269  0.78005594  1
  Co  Co6  1  0.61142607  0.80242352  0.49077553  1
  Co  Co7  1  0.87735321  0.69685714  0.24645895  1
  Ag  Ag8  1  0.00717566  0.00254701  0.99902643  1
  Ag  Ag9  1  0.20477812  0.61284745  0.50158133  1
  Ag  Ag10  1  0.39846940  0.19653625  0.50083568  1
  Ag  Ag11  1  0.88359581  0.70063171  0.74923426  1
  Fe  Fe12  1  0.70824080  0.08931615  0.24833084  1
  Fe  Fe13  1  0.79171400  0.40740444  0.47468702  1
  Fe  Fe14  1  0.57808947  0.78818833  0.01361805  1
  Fe  Fe15  1  0.78736888  0.42274869  0.01617845  1
  Ni  Ni16  1  0.97582949  0.01365601  0.48472041  1
  Ni  Ni17  1  0.09000901  0.30750330  0.24472074  1
  Ni  Ni18  1  0.70934371  0.12450162  0.73948660  1
  Ni  Ni19  1  0.50340713  0.49981444  0.24317738  1
