# generated using pymatgen
data_MnFeCoNiAu
_symmetry_space_group_name_H-M   'P 1'
_cell_length_a   9.58596787
_cell_length_b   9.58596787
_cell_length_c   7.49180633
_cell_angle_alpha   90.03713341
_cell_angle_beta   89.96286660
_cell_angle_gamma   157.91575372
_symmetry_Int_Tables_number   1
_chemical_formula_structural   MnFeCoNiAu
_chemical_formula_sum   'Mn4 Fe4 Co4 Ni4 Au4'
_cell_volume   258.82784464
_cell_formula_units_Z   4
loop_
 _symmetry_equiv_pos_site_id
 _symmetry_equiv_pos_as_xyz
  1  'x, y, z'
loop_
 _atom_site_type_symbol
 _atom_site_label
 _atom_site_symmetry_multiplicity
 _atom_site_fract_x
 _atom_site_fract_y
 _atom_site_fract_z
 _atom_site_occupancy
  Co  Co0  1  0.10710454  0.89289546  0.24138859  1
  Co  Co1  1  0.30410121  0.69589879  0.24534845  1
  Co  Co2  1  0.99334577  0.00665423  0.51233421  1
  Co  Co3  1  0.79644790  0.20355210  0.47721537  1
  Au  Au4  1  0.30589994  0.69410006  0.74914028  1
  Au  Au5  1  0.69675659  0.30324341  0.75988108  1
  Au  Au6  1  0.59883495  0.40116505  0.49995791  1
  Au  Au7  1  0.49766498  0.50233502  0.24877886  1
  Fe  Fe8  1  0.20802213  0.79197787  0.48355089  1
  Fe  Fe9  1  0.40037166  0.59962834  0.01280935  1
  Fe  Fe10  1  0.99945051  0.00054949  0.98997464  1
  Fe  Fe11  1  0.89361208  0.10638792  0.25784116  1
  Mn  Mn12  1  0.90520568  0.09479432  0.74896735  1
  Mn  Mn13  1  0.70441543  0.29558457  0.23414518  1
  Mn  Mn14  1  0.59518084  0.40481916  0.99762463  1
  Mn  Mn15  1  0.80314973  0.19685027  0.01279241  1
  Ni  Ni16  1  0.09213202  0.90786798  0.76192223  1
  Ni  Ni17  1  0.49614126  0.50385874  0.75482787  1
  Ni  Ni18  1  0.39973387  0.60026613  0.49525946  1
  Ni  Ni19  1  0.20242891  0.79757109  0.01624010  1
