# generated using pymatgen
data_MnNbFeCoNi
_symmetry_space_group_name_H-M   'P 1'
_cell_length_a   10.24344469
_cell_length_b   10.24344469
_cell_length_c   6.40027156
_cell_angle_alpha   89.50467662
_cell_angle_beta   90.49532337
_cell_angle_gamma   157.95850841
_symmetry_Int_Tables_number   1
_chemical_formula_structural   MnNbFeCoNi
_chemical_formula_sum   'Mn4 Nb4 Fe4 Co4 Ni4'
_cell_volume   252.01514072
_cell_formula_units_Z   4
loop_
 _symmetry_equiv_pos_site_id
 _symmetry_equiv_pos_as_xyz
  1  'x, y, z'
loop_
 _atom_site_type_symbol
 _atom_site_label
 _atom_site_symmetry_multiplicity
 _atom_site_fract_x
 _atom_site_fract_y
 _atom_site_fract_z
 _atom_site_occupancy
  Co  Co0  1  0.09796315  0.90203685  0.24350666  1
  Co  Co1  1  0.30311316  0.69688684  0.25001116  1
  Co  Co2  1  0.99408696  0.00591304  0.50992979  1
  Co  Co3  1  0.80603696  0.19396304  0.48094210  1
  Nb  Nb4  1  0.30488889  0.69511111  0.74737649  1
  Nb  Nb5  1  0.69898055  0.30101945  0.75183902  1
  Nb  Nb6  1  0.59276136  0.40723864  0.50575127  1
  Nb  Nb7  1  0.49607310  0.50392690  0.23126459  1
  Fe  Fe8  1  0.20483443  0.79516557  0.47488750  1
  Fe  Fe9  1  0.39782513  0.60217487  0.00768250  1
  Fe  Fe10  1  0.00478147  0.99521853  0.96908485  1
  Fe  Fe11  1  0.89965370  0.10034630  0.23770536  1
  Mn  Mn12  1  0.90193515  0.09806485  0.75232516  1
  Mn  Mn13  1  0.69624237  0.30375763  0.26147053  1
  Mn  Mn14  1  0.60013819  0.39986181  0.00331555  1
  Mn  Mn15  1  0.79759973  0.20240027  0.02339726  1
  Ni  Ni16  1  0.10896274  0.89103726  0.76422604  1
  Ni  Ni17  1  0.49139920  0.50860080  0.75819094  1
  Ni  Ni18  1  0.40194308  0.59805692  0.49206832  1
  Ni  Ni19  1  0.20078067  0.79921933  0.03502489  1
