# generated using pymatgen
data_MnFeCoNiOs
_symmetry_space_group_name_H-M   'P 1'
_cell_length_a   9.26311246
_cell_length_b   9.26311246
_cell_length_c   7.25631605
_cell_angle_alpha   90.34599162
_cell_angle_beta   89.65400837
_cell_angle_gamma   157.56349545
_symmetry_Int_Tables_number   1
_chemical_formula_structural   MnFeCoNiOs
_chemical_formula_sum   'Mn4 Fe4 Co4 Ni4 Os4'
_cell_volume   237.62806947
_cell_formula_units_Z   4
loop_
 _symmetry_equiv_pos_site_id
 _symmetry_equiv_pos_as_xyz
  1  'x, y, z'
loop_
 _atom_site_type_symbol
 _atom_site_label
 _atom_site_symmetry_multiplicity
 _atom_site_fract_x
 _atom_site_fract_y
 _atom_site_fract_z
 _atom_site_occupancy
  Co  Co0  1  0.09968262  0.90031738  0.24789987  1
  Co  Co1  1  0.29985416  0.70014584  0.25685854  1
  Co  Co2  1  0.00023276  0.99976724  0.49570341  1
  Co  Co3  1  0.80323175  0.19676825  0.49490303  1
  Os  Os4  1  0.30075501  0.69924499  0.75325982  1
  Os  Os5  1  0.69950209  0.30049791  0.74560127  1
  Os  Os6  1  0.60005847  0.39994153  0.49711847  1
  Os  Os7  1  0.49718905  0.50281095  0.24587127  1
  Fe  Fe8  1  0.20038476  0.79961524  0.49863888  1
  Fe  Fe9  1  0.39845155  0.60154845  0.00461299  1
  Fe  Fe10  1  0.00199016  0.99800984  0.99861146  1
  Fe  Fe11  1  0.89746581  0.10253419  0.25422572  1
  Mn  Mn12  1  0.90489021  0.09510979  0.74490898  1
  Mn  Mn13  1  0.70054885  0.29945115  0.24720030  1
  Mn  Mn14  1  0.60025680  0.39974320  0.00108998  1
  Mn  Mn15  1  0.80078001  0.19921999  0.00556681  1
  Ni  Ni16  1  0.09605957  0.90394043  0.75229339  1
  Ni  Ni17  1  0.49956845  0.50043155  0.75012987  1
  Ni  Ni18  1  0.39943561  0.60056439  0.49926123  1
  Ni  Ni19  1  0.19966228  0.80033772  0.00624470  1
