# generated using pymatgen
data_ScMnFeCoNi
_symmetry_space_group_name_H-M   'P 1'
_cell_length_a   10.96522123
_cell_length_b   10.96522123
_cell_length_c   6.18238188
_cell_angle_alpha   91.55331460
_cell_angle_beta   88.44668540
_cell_angle_gamma   158.56484405
_symmetry_Int_Tables_number   1
_chemical_formula_structural   ScMnFeCoNi
_chemical_formula_sum   'Sc4 Mn4 Fe4 Co4 Ni4'
_cell_volume   271.55066766
_cell_formula_units_Z   4
loop_
 _symmetry_equiv_pos_site_id
 _symmetry_equiv_pos_as_xyz
  1  'x, y, z'
loop_
 _atom_site_type_symbol
 _atom_site_label
 _atom_site_symmetry_multiplicity
 _atom_site_fract_x
 _atom_site_fract_y
 _atom_site_fract_z
 _atom_site_occupancy
  Co  Co0  1  0.09567887  0.90432113  0.22915741  1
  Co  Co1  1  0.29880866  0.70119134  0.26790528  1
  Co  Co2  1  0.99240341  0.00759659  0.49406545  1
  Co  Co3  1  0.80384046  0.19615954  0.47617035  1
  Sc  Sc4  1  0.30469421  0.69530579  0.74502305  1
  Sc  Sc5  1  0.70521080  0.29478920  0.75512616  1
  Sc  Sc6  1  0.58493874  0.41506126  0.53761480  1
  Sc  Sc7  1  0.49265358  0.50734642  0.20469673  1
  Fe  Fe8  1  0.19082156  0.80917844  0.46439405  1
  Fe  Fe9  1  0.38865873  0.61134127  0.02807641  1
  Fe  Fe10  1  0.02053815  0.97946185  0.89391961  1
  Fe  Fe11  1  0.89940146  0.10059854  0.26459372  1
  Mn  Mn12  1  0.90226601  0.09773399  0.75309906  1
  Mn  Mn13  1  0.70384175  0.29615825  0.26516880  1
  Mn  Mn14  1  0.60257447  0.39742553  0.01085860  1
  Mn  Mn15  1  0.80676303  0.19323697  0.03694766  1
  Ni  Ni16  1  0.12493622  0.87506378  0.78492349  1
  Ni  Ni17  1  0.47650598  0.52349402  0.75980006  1
  Ni  Ni18  1  0.39923461  0.60076539  0.48316773  1
  Ni  Ni19  1  0.20622932  0.79377068  0.04529158  1
