# generated using pymatgen
data_CrFeCoNi
_symmetry_space_group_name_H-M   'P 1'
_cell_length_a   7.41576968
_cell_length_b   7.41576968
_cell_length_c   5.53498790
_cell_angle_alpha   98.52347372
_cell_angle_beta   98.65594613
_cell_angle_gamma   140.99077459
_symmetry_Int_Tables_number   1
_chemical_formula_structural   CrFeCoNi
_chemical_formula_sum   'Cr4 Fe4 Co4 Ni4'
_cell_volume   171.35715143
_cell_formula_units_Z   4
loop_
 _symmetry_equiv_pos_site_id
 _symmetry_equiv_pos_as_xyz
  1  'x, y, z'
loop_
 _atom_site_type_symbol
 _atom_site_label
 _atom_site_symmetry_multiplicity
 _atom_site_fract_x
 _atom_site_fract_y
 _atom_site_fract_z
 _atom_site_occupancy
  Cr  Cr0  1  0.25514140  0.99957000  0.75471140  1
  Cr  Cr1  1  0.24585298  0.24632427  0.48435915  1
  Cr  Cr2  1  0.49967323  0.75792047  0.75759370  1
  Cr  Cr3  1  0.73803487  0.73850617  0.48435915  1
  Co  Co4  1  0.74870442  0.99896892  0.24767335  1
  Co  Co5  1  0.99891647  0.99868801  0.99592857  1
  Co  Co6  1  0.00591229  0.75692599  0.26283828  1
  Co  Co7  1  0.49724056  0.49701211  0.99592857  1
  Fe  Fe8  1  0.50100850  0.00066534  0.49913435  1
  Fe  Fe9  1  0.99846900  0.49812585  0.49913435  1
  Fe  Fe10  1  0.49983138  0.25006233  0.24989371  1
  Fe  Fe11  1  0.25986467  0.50603099  0.26589566  1
  Ni  Ni12  1  0.00005169  0.24877933  0.74883101  1
  Ni  Ni13  1  0.74877336  0.49946934  0.74824270  1
  Ni  Ni14  1  0.75118977  0.25140264  0.00273802  1
  Ni  Ni15  1  0.25133539  0.75154825  0.00273802  1
