# generated using pymatgen
data_ZrCrFeCoNi
_symmetry_space_group_name_H-M   'P 1'
_cell_length_a   6.19811363
_cell_length_b   5.22223331
_cell_length_c   8.41564179
_cell_angle_alpha   97.94434844
_cell_angle_beta   97.40189195
_cell_angle_gamma   88.49345062
_symmetry_Int_Tables_number   1
_chemical_formula_structural   ZrCrFeCoNi
_chemical_formula_sum   'Zr4 Cr4 Fe4 Co4 Ni4'
_cell_volume   267.52508335
_cell_formula_units_Z   4
loop_
 _symmetry_equiv_pos_site_id
 _symmetry_equiv_pos_as_xyz
  1  'x, y, z'
loop_
 _atom_site_type_symbol
 _atom_site_label
 _atom_site_symmetry_multiplicity
 _atom_site_fract_x
 _atom_site_fract_y
 _atom_site_fract_z
 _atom_site_occupancy
  Zr  Zr0  1  0.82932174  0.43710136  0.17384798  1
  Zr  Zr1  1  0.49538783  0.93397689  0.04190306  1
  Zr  Zr2  1  0.86155012  0.40416162  0.54541024  1
  Zr  Zr3  1  0.73803071  0.17325964  0.81554199  1
  Co  Co4  1  0.22185790  0.76265454  0.19985068  1
  Co  Co5  1  0.06244032  0.45331544  0.95394913  1
  Co  Co6  1  0.85695208  0.90125743  0.55867098  1
  Co  Co7  1  0.16265512  0.63057650  0.44402844  1
  Cr  Cr8  1  0.45814680  0.86724996  0.61717419  1
  Cr  Cr9  1  0.39120049  0.43486751  0.64217809  1
  Cr  Cr10  1  0.14016499  0.72977121  0.76722821  1
  Cr  Cr11  1  0.21195765  0.13753333  0.75692087  1
  Fe  Fe12  1  0.86591677  0.94036986  0.28033649  1
  Fe  Fe13  1  0.00323778  0.95401112  0.01792467  1
  Fe  Fe14  1  0.53600819  0.09767685  0.38618544  1
  Fe  Fe15  1  0.18155839  0.11221516  0.44439349  1
  Ni  Ni16  1  0.44116536  0.44723532  0.96723998  1
  Ni  Ni17  1  0.54098819  0.61775047  0.36395288  1
  Ni  Ni18  1  0.26180173  0.29721743  0.20383017  1
  Ni  Ni19  1  0.73965783  0.66779837  0.81943300  1
