# generated using pymatgen
data_HfCrFeCoNi
_symmetry_space_group_name_H-M   'P 1'
_cell_length_a   5.20067361
_cell_length_b   5.05678670
_cell_length_c   10.23851226
_cell_angle_alpha   97.22111674
_cell_angle_beta   94.48789841
_cell_angle_gamma   88.49577867
_symmetry_Int_Tables_number   1
_chemical_formula_structural   HfCrFeCoNi
_chemical_formula_sum   'Hf4 Cr4 Fe4 Co4 Ni4'
_cell_volume   266.26817176
_cell_formula_units_Z   4
loop_
 _symmetry_equiv_pos_site_id
 _symmetry_equiv_pos_as_xyz
  1  'x, y, z'
loop_
 _atom_site_type_symbol
 _atom_site_label
 _atom_site_symmetry_multiplicity
 _atom_site_fract_x
 _atom_site_fract_y
 _atom_site_fract_z
 _atom_site_occupancy
  Hf  Hf0  1  0.87138726  0.28477047  0.18988722  1
  Hf  Hf1  1  0.37649654  0.00086850  0.00743901  1
  Hf  Hf2  1  0.88783422  0.45382436  0.58007630  1
  Hf  Hf3  1  0.78890659  0.21611481  0.83050213  1
  Co  Co4  1  0.26603726  0.80419002  0.21509403  1
  Co  Co5  1  0.11323417  0.47434697  0.00961724  1
  Co  Co6  1  0.87665816  0.95959339  0.58951008  1
  Co  Co7  1  0.12388831  0.59595155  0.39646022  1
  Cr  Cr8  1  0.37187243  0.86320169  0.58540428  1
  Cr  Cr9  1  0.39630642  0.36489752  0.59480319  1
  Cr  Cr10  1  0.12756743  0.72894208  0.78886612  1
  Cr  Cr11  1  0.26950380  0.25304347  0.77586681  1
  Fe  Fe12  1  0.78609430  0.79945859  0.21712423  1
  Fe  Fe13  1  0.88949189  0.85661882  0.99897491  1
  Fe  Fe14  1  0.59850887  0.09006036  0.39692141  1
  Fe  Fe15  1  0.11578335  0.08513136  0.39979167  1
  Ni  Ni16  1  0.56224702  0.51398551  0.01740123  1
  Ni  Ni17  1  0.59530598  0.61349311  0.39657321  1
  Ni  Ni18  1  0.36939947  0.32558616  0.22247083  1
  Ni  Ni19  1  0.61347653  0.71592125  0.78721586  1
