# generated using pymatgen
data_MnFeCoNi
_symmetry_space_group_name_H-M   'P 1'
_cell_length_a   6.29804103
_cell_length_b   6.29804104
_cell_length_c   6.23983235
_cell_angle_alpha   102.56923021
_cell_angle_beta   102.58054854
_cell_angle_gamma   124.65219621
_symmetry_Int_Tables_number   1
_chemical_formula_structural   MnFeCoNi
_chemical_formula_sum   'Mn4 Fe4 Co4 Ni4'
_cell_volume   179.84581941
_cell_formula_units_Z   4
loop_
 _symmetry_equiv_pos_site_id
 _symmetry_equiv_pos_as_xyz
  1  'x, y, z'
loop_
 _atom_site_type_symbol
 _atom_site_label
 _atom_site_symmetry_multiplicity
 _atom_site_fract_x
 _atom_site_fract_y
 _atom_site_fract_z
 _atom_site_occupancy
  Mn  Mn0  1  0.23103896  0.00655484  0.73762198  1
  Mn  Mn1  1  0.25577461  0.25850214  0.49815910  1
  Mn  Mn2  1  0.50501832  0.73623251  0.74126672  1
  Mn  Mn3  1  0.73988146  0.74241061  0.49826383  1
  Co  Co4  1  0.76487183  0.00509796  0.27019385  1
  Co  Co5  1  0.00471654  0.00317911  0.00757830  1
  Co  Co6  1  0.99952422  0.74328485  0.24287490  1
  Co  Co7  1  0.50439063  0.50284237  0.00758904  1
  Fe  Fe8  1  0.49787278  0.99981568  0.50193906  1
  Fe  Fe9  1  0.00213979  0.50406693  0.50182250  1
  Fe  Fe10  1  0.50124707  0.25558200  0.25672312  1
  Fe  Fe11  1  0.23891316  0.49569930  0.23461888  1
  Ni  Ni12  1  0.99855051  0.25020879  0.74866783  1
  Ni  Ni13  1  0.76003933  0.50059186  0.76072104  1
  Ni  Ni14  1  0.72490055  0.22481683  0.99596615  1
  Ni  Ni15  1  0.27112024  0.77111422  0.99599370  1
