# generated using pymatgen
data_MnFeCoNiPt
_symmetry_space_group_name_H-M   'P 1'
_cell_length_a   11.13808095
_cell_length_b   11.13808096
_cell_length_c   5.45374008
_cell_angle_alpha   90.64000866
_cell_angle_beta   89.35999133
_cell_angle_gamma   157.83449818
_symmetry_Int_Tables_number   1
_chemical_formula_structural   MnFeCoNiPt
_chemical_formula_sum   'Mn4 Fe4 Co4 Ni4 Pt4'
_cell_volume   255.24342308
_cell_formula_units_Z   4
loop_
 _symmetry_equiv_pos_site_id
 _symmetry_equiv_pos_as_xyz
  1  'x, y, z'
loop_
 _atom_site_type_symbol
 _atom_site_label
 _atom_site_symmetry_multiplicity
 _atom_site_fract_x
 _atom_site_fract_y
 _atom_site_fract_z
 _atom_site_occupancy
  Co  Co0  1  0.09609806  0.90390194  0.24185212  1
  Co  Co1  1  0.28950663  0.71049337  0.27349736  1
  Co  Co2  1  0.00728306  0.99271694  0.51486153  1
  Co  Co3  1  0.81209499  0.18790501  0.47189143  1
  Pt  Pt4  1  0.29611060  0.70388940  0.76171725  1
  Pt  Pt5  1  0.70974910  0.29025090  0.75489704  1
  Pt  Pt6  1  0.60004846  0.39995154  0.49986088  1
  Pt  Pt7  1  0.49436718  0.50563282  0.24699139  1
  Fe  Fe8  1  0.19295190  0.80704810  0.50290500  1
  Fe  Fe9  1  0.39522881  0.60477119  0.00629330  1
  Fe  Fe10  1  0.00490898  0.99509102  0.97779877  1
  Fe  Fe11  1  0.91188667  0.08811333  0.24478036  1
  Mn  Mn12  1  0.90595074  0.09404926  0.73385463  1
  Mn  Mn13  1  0.70487114  0.29512886  0.25248944  1
  Mn  Mn14  1  0.59826721  0.40173279  0.98433199  1
  Mn  Mn15  1  0.81014060  0.18985940  0.02163586  1
  Ni  Ni16  1  0.10059481  0.89940519  0.76482600  1
  Ni  Ni17  1  0.48787227  0.51212773  0.73728668  1
  Ni  Ni18  1  0.38958988  0.61041012  0.48290318  1
  Ni  Ni19  1  0.19247896  0.80752104  0.02532576  1
