# generated using pymatgen
data_MnFeCoNiAg
_symmetry_space_group_name_H-M   'P 1'
_cell_length_a   9.71572480
_cell_length_b   9.71572480
_cell_length_c   7.54738774
_cell_angle_alpha   88.17664880
_cell_angle_beta   91.82335121
_cell_angle_gamma   159.52327875
_symmetry_Int_Tables_number   1
_chemical_formula_structural   MnFeCoNiAg
_chemical_formula_sum   'Mn4 Fe4 Co4 Ni4 Ag4'
_cell_volume   249.09958790
_cell_formula_units_Z   4
loop_
 _symmetry_equiv_pos_site_id
 _symmetry_equiv_pos_as_xyz
  1  'x, y, z'
loop_
 _atom_site_type_symbol
 _atom_site_label
 _atom_site_symmetry_multiplicity
 _atom_site_fract_x
 _atom_site_fract_y
 _atom_site_fract_z
 _atom_site_occupancy
  Co  Co0  1  0.10893868  0.89106132  0.23176598  1
  Co  Co1  1  0.30629744  0.69370256  0.24878209  1
  Co  Co2  1  0.99021075  0.00978925  0.53058506  1
  Co  Co3  1  0.80427759  0.19572241  0.46916375  1
  Ag  Ag4  1  0.30239327  0.69760673  0.73662024  1
  Ag  Ag5  1  0.69595063  0.30404937  0.75059584  1
  Ag  Ag6  1  0.59754536  0.40245464  0.50220428  1
  Ag  Ag7  1  0.49738879  0.50261121  0.25623551  1
  Fe  Fe8  1  0.20841224  0.79158776  0.45664263  1
  Fe  Fe9  1  0.40199555  0.59800445  0.99275001  1
  Fe  Fe10  1  -0.00390703  0.00390703  0.98798603  1
  Fe  Fe11  1  0.89361728  0.10638272  0.25524123  1
  Mn  Mn12  1  0.90705636  0.09294364  0.76254786  1
  Mn  Mn13  1  0.70235853  0.29764147  0.25429013  1
  Mn  Mn14  1  0.59682000  0.40318000  0.00535332  1
  Mn  Mn15  1  0.80425404  0.19574596  0.00953332  1
  Ni  Ni16  1  0.09023482  0.90976518  0.77058372  1
  Ni  Ni17  1  0.49499762  0.50500238  0.75881797  1
  Ni  Ni18  1  0.39851222  0.60148778  0.50518507  1
  Ni  Ni19  1  0.20264585  0.79735415  0.01511598  1
