# generated using pymatgen
data_Ti3AlN4
_symmetry_space_group_name_H-M   'P 1'
_cell_length_a   8.43733749
_cell_length_b   8.42956439
_cell_length_c   8.43642551
_cell_angle_alpha   89.76444818
_cell_angle_beta   90.17703321
_cell_angle_gamma   90.11842435
_symmetry_Int_Tables_number   1
_chemical_formula_structural   Ti3AlN4
_chemical_formula_sum   'Ti24 Al8 N32'
_cell_volume   600.01536273
_cell_formula_units_Z   8
loop_
 _symmetry_equiv_pos_site_id
 _symmetry_equiv_pos_as_xyz
  1  'x, y, z'
loop_
 _atom_site_type_symbol
 _atom_site_label
 _atom_site_symmetry_multiplicity
 _atom_site_fract_x
 _atom_site_fract_y
 _atom_site_fract_z
 _atom_site_occupancy
  Ti  Ti0  1  0.00253818  0.00039327  0.99790673  1
  Ti  Ti1  1  0.25141988  0.99809989  0.24494715  1
  Ti  Ti2  1  0.25381862  0.24518926  0.00028479  1
  Ti  Ti3  1  0.99725746  0.25434664  0.75009072  1
  Ti  Ti4  1  0.24771470  0.99843154  0.75447684  1
  Ti  Ti5  1  0.99845630  0.74923888  0.25518412  1
  Ti  Ti6  1  0.25057071  0.75435216  0.00028152  1
  Ti  Ti7  1  0.99696685  0.50416305  0.50583887  1
  Ti  Ti8  1  0.00050081  0.74694131  0.74566305  1
  Ti  Ti9  1  0.24479543  0.50216954  0.75161722  1
  Ti  Ti10  1  0.25296786  0.75425982  0.49980507  1
  Ti  Ti11  1  0.49825241  0.99899777  0.99972196  1
  Ti  Ti12  1  0.50547654  0.24870198  0.24620224  1
  Ti  Ti13  1  0.74955767  0.99990517  0.24866323  1
  Ti  Ti14  1  0.74670855  0.24928791  0.00198030  1
  Ti  Ti15  1  0.50153027  0.99512809  0.49964852  1
  Ti  Ti16  1  0.75160455  0.00205922  0.75029783  1
  Ti  Ti17  1  0.74714306  0.24813755  0.49767616  1
  Ti  Ti18  1  0.49972385  0.50032973  0.99881299  1
  Ti  Ti19  1  0.50246723  0.75062180  0.25034341  1
  Ti  Ti20  1  0.74898039  0.49885980  0.25300110  1
  Ti  Ti21  1  0.49974722  0.74965055  0.74851104  1
  Ti  Ti22  1  0.75302071  0.49772290  0.74799102  1
  Ti  Ti23  1  0.74666848  0.75270160  0.49997233  1
  Al  Al24  1  0.00472700  0.25216426  0.25207454  1
  Al  Al25  1  0.00330416  0.00561370  0.49814983  1
  Al  Al26  1  0.25034740  0.25043574  0.49790706  1
  Al  Al27  1  0.00063932  0.50014300  0.00664721  1
  Al  Al28  1  0.24841473  0.49621896  0.25191851  1
  Al  Al29  1  0.49662852  0.25200936  0.74466646  1
  Al  Al30  1  0.75330673  0.74756907  0.99895978  1
  Al  Al31  1  0.49418164  0.49565195  0.50028178  1
  N  N32  1  0.24588887  0.25546809  0.25584132  1
  N  N33  1  0.24888593  0.99943919  0.00032937  1
  N  N34  1  0.00036388  0.25678029  0.00710701  1
  N  N35  1  0.00226385  0.00901972  0.25675519  1
  N  N36  1  0.25538909  0.25151306  0.74262351  1
  N  N37  1  0.24313052  0.00810229  0.49866347  1
  N  N38  1  0.00678105  0.24636136  0.49466577  1
  N  N39  1  0.00004459  0.00297557  0.74098748  1
  N  N40  1  0.24962074  0.74115784  0.24973375  1
  N  N41  1  0.24307381  0.50036784  0.00879593  1
  N  N42  1  0.99318774  0.74330054  0.00144461  1
  N  N43  1  0.00708555  0.49240909  0.24692391  1
  N  N44  1  0.25108947  0.74953188  0.75062529  1
  N  N45  1  0.25280876  0.49426813  0.49399466  1
  N  N46  1  0.99958762  0.76058496  0.49955938  1
  N  N47  1  0.99982773  0.49892210  0.76139224  1
  N  N48  1  0.76017508  0.25022422  0.24965569  1
  N  N49  1  0.75226926  0.98987975  0.99973115  1
  N  N50  1  0.50054092  0.25146370  0.98897967  1
  N  N51  1  0.49973740  0.00150418  0.25134339  1
  N  N52  1  0.74072673  0.24980372  0.74991958  1
  N  N53  1  0.75963019  0.99980518  0.49944125  1
  N  N54  1  0.49209297  0.25582213  0.50511817  1
  N  N55  1  0.49952683  0.00938457  0.74711127  1
  N  N56  1  0.75109318  0.74887226  0.24133305  1
  N  N57  1  0.75711567  0.50762791  0.00199571  1
  N  N58  1  0.50970789  0.74799691  0.99855916  1
  N  N59  1  0.49142805  0.49660310  0.25710857  1
  N  N60  1  0.74883384  0.75018063  0.75855739  1
  N  N61  1  0.74130306  0.50063599  0.49941439  1
  N  N62  1  0.49977201  0.73864279  0.50057167  1
  N  N63  1  0.49758054  0.49185550  0.74219364  1
