# generated using pymatgen
data_Ti3AlN4
_symmetry_space_group_name_H-M   'P 1'
_cell_length_a   8.45201607
_cell_length_b   8.43115255
_cell_length_c   8.43360007
_cell_angle_alpha   90.00000000
_cell_angle_beta   90.00000000
_cell_angle_gamma   90.00000000
_symmetry_Int_Tables_number   1
_chemical_formula_structural   Ti3AlN4
_chemical_formula_sum   'Ti24 Al8 N32'
_cell_volume   600.98033841
_cell_formula_units_Z   8
loop_
 _symmetry_equiv_pos_site_id
 _symmetry_equiv_pos_as_xyz
  1  'x, y, z'
loop_
 _atom_site_type_symbol
 _atom_site_label
 _atom_site_symmetry_multiplicity
 _atom_site_fract_x
 _atom_site_fract_y
 _atom_site_fract_z
 _atom_site_occupancy
  Ti  Ti0  1  0.00243734  0.99946357  0.00000000  1
  Ti  Ti1  1  0.00142145  0.24988971  0.25206022  1
  Ti  Ti2  1  0.24573660  0.00294032  0.24608997  1
  Ti  Ti3  1  0.24637426  0.24782940  0.00000000  1
  Ti  Ti4  1  0.99879779  0.00124194  0.50000000  1
  Ti  Ti5  1  0.00142145  0.24988971  0.74793978  1
  Ti  Ti6  1  0.24573660  0.00294032  0.75391003  1
  Ti  Ti7  1  0.24579271  0.25050051  0.50000000  1
  Ti  Ti8  1  0.00120221  0.50124194  0.00000000  1
  Ti  Ti9  1  0.99857855  0.74988971  0.24793978  1
  Ti  Ti10  1  0.24582564  0.49771027  0.24932030  1
  Ti  Ti11  1  0.24543962  0.75213502  0.00000000  1
  Ti  Ti12  1  0.99756266  0.49946357  0.50000000  1
  Ti  Ti13  1  0.99857855  0.74988971  0.75206022  1
  Ti  Ti14  1  0.24582564  0.49771027  0.75067970  1
  Ti  Ti15  1  0.49611091  0.99663498  0.00000000  1
  Ti  Ti16  1  0.75417436  0.99771027  0.25067970  1
  Ti  Ti17  1  0.75417436  0.99771027  0.74932030  1
  Ti  Ti18  1  0.75456038  0.25213502  0.50000000  1
  Ti  Ti19  1  0.75426340  0.50294032  0.25391003  1
  Ti  Ti20  1  0.75420729  0.75050051  0.00000000  1
  Ti  Ti21  1  0.50388909  0.49663498  0.50000000  1
  Ti  Ti22  1  0.75426340  0.50294032  0.74608997  1
  Ti  Ti23  1  0.75362574  0.74782940  0.50000000  1
  N  N24  1  0.26302554  0.25039412  0.25067543  1
  N  N25  1  0.25010202  0.99937179  0.00000000  1
  N  N26  1  0.98894584  0.25097381  0.00000000  1
  N  N27  1  0.99947466  0.00002211  0.25069320  1
  N  N28  1  0.26302554  0.25039412  0.74932457  1
  N  N29  1  0.25578262  0.99364340  0.50000000  1
  N  N30  1  0.00069713  0.24949025  0.50000000  1
  N  N31  1  0.99947466  0.00002211  0.74930680  1
  N  N32  1  0.26032592  0.75002156  0.25727276  1
  N  N33  1  0.25732321  0.50062692  0.00000000  1
  N  N34  1  0.99930287  0.74949025  0.00000000  1
  N  N35  1  0.00052534  0.50002211  0.24930680  1
  N  N36  1  0.26032592  0.75002156  0.74272724  1
  N  N37  1  0.25161713  0.50787710  0.50000000  1
  N  N38  1  0.01105416  0.75097381  0.50000000  1
  N  N39  1  0.00052534  0.50002211  0.75069320  1
  N  N40  1  0.73967408  0.25002156  0.24272724  1
  N  N41  1  0.74838287  0.00787710  0.00000000  1
  N  N42  1  0.50606962  0.25514955  0.00000000  1
  N  N43  1  0.49958142  0.99982019  0.25585659  1
  N  N44  1  0.73967408  0.25002156  0.75727276  1
  N  N45  1  0.74267679  0.00062692  0.50000000  1
  N  N46  1  0.50015108  0.24301555  0.50000000  1
  N  N47  1  0.49958142  0.99982019  0.74414341  1
  N  N48  1  0.73697446  0.75039412  0.24932457  1
  N  N49  1  0.74421738  0.49364340  0.00000000  1
  N  N50  1  0.49984892  0.74301555  0.00000000  1
  N  N51  1  0.50041858  0.49982019  0.24414341  1
  N  N52  1  0.73697446  0.75039412  0.75067543  1
  N  N53  1  0.74989798  0.49937179  0.50000000  1
  N  N54  1  0.49393038  0.75514955  0.50000000  1
  N  N55  1  0.50041858  0.49982019  0.75585659  1
  Al  Al56  1  0.25367396  0.75239482  0.50000000  1
  Al  Al57  1  0.50298777  0.24929800  0.24795962  1
  Al  Al58  1  0.74632604  0.25239482  0.00000000  1
  Al  Al59  1  0.49741218  0.99945877  0.50000000  1
  Al  Al60  1  0.50298777  0.24929800  0.75204038  1
  Al  Al61  1  0.50258782  0.49945877  0.00000000  1
  Al  Al62  1  0.49701223  0.74929800  0.25204038  1
  Al  Al63  1  0.49701223  0.74929800  0.74795962  1
