# generated using pymatgen
data_Ti3AlN4
_symmetry_space_group_name_H-M   'P 1'
_cell_length_a   8.43187578
_cell_length_b   8.44259583
_cell_length_c   8.43787954
_cell_angle_alpha   89.96748421
_cell_angle_beta   90.03159027
_cell_angle_gamma   89.99691811
_symmetry_Int_Tables_number   1
_chemical_formula_structural   Ti3AlN4
_chemical_formula_sum   'Ti24 Al8 N32'
_cell_volume   600.66646123
_cell_formula_units_Z   8
loop_
 _symmetry_equiv_pos_site_id
 _symmetry_equiv_pos_as_xyz
  1  'x, y, z'
loop_
 _atom_site_type_symbol
 _atom_site_label
 _atom_site_symmetry_multiplicity
 _atom_site_fract_x
 _atom_site_fract_y
 _atom_site_fract_z
 _atom_site_occupancy
  Ti  Ti0  1  0.00369151  0.00022383  0.99824378  1
  Ti  Ti1  1  0.25095382  0.99662644  0.24385048  1
  Ti  Ti2  1  0.25164463  0.24768633  0.99956160  1
  Ti  Ti3  1  0.00083155  0.25423470  0.75344821  1
  Ti  Ti4  1  0.24996315  0.99906717  0.75591356  1
  Ti  Ti5  1  0.99910390  0.49994956  0.99866231  1
  Ti  Ti6  1  0.00216896  0.74672521  0.24936884  1
  Ti  Ti7  1  0.25034524  0.50319979  0.25239692  1
  Ti  Ti8  1  0.25011902  0.75268033  0.00037592  1
  Ti  Ti9  1  0.00170608  0.50318164  0.50213137  1
  Ti  Ti10  1  0.00156140  0.74551694  0.75116523  1
  Ti  Ti11  1  0.24933244  0.50082266  0.74733236  1
  Ti  Ti12  1  0.25046839  0.74894607  0.49916276  1
  Ti  Ti13  1  0.49637708  0.00112117  0.99928978  1
  Ti  Ti14  1  0.49900752  0.25357181  0.24565262  1
  Ti  Ti15  1  0.74837923  0.25387457  0.99895339  1
  Ti  Ti16  1  0.49892205  0.25338774  0.75440059  1
  Ti  Ti17  1  0.50073726  0.49912327  0.00017375  1
  Ti  Ti18  1  0.49760739  0.74582237  0.25033962  1
  Ti  Ti19  1  0.75012426  0.50188210  0.24652376  1
  Ti  Ti20  1  0.74988341  0.74620840  0.00065437  1
  Ti  Ti21  1  0.49816635  0.50058357  0.49959283  1
  Ti  Ti22  1  0.49820665  0.74657194  0.74999148  1
  Ti  Ti23  1  0.75077424  0.50060091  0.75336092  1
  Al  Al24  1  0.99857444  0.24660478  0.25505700  1
  Al  Al25  1  0.99795874  0.00258411  0.49956719  1
  Al  Al26  1  0.24882501  0.24326476  0.49752615  1
  Al  Al27  1  0.75114152  0.00126999  0.25326105  1
  Al  Al28  1  0.50227020  0.00302469  0.49986055  1
  Al  Al29  1  0.75013505  0.00002462  0.74603005  1
  Al  Al30  1  0.75079549  0.24561716  0.49880731  1
  Al  Al31  1  0.74984263  0.75690567  0.49990398  1
  N  N32  1  0.24232363  0.24829779  0.25848793  1
  N  N33  1  0.25012141  0.00055037  0.99976381  1
  N  N34  1  0.99975990  0.24892030  0.00999342  1
  N  N35  1  0.99277099  0.00513989  0.25731575  1
  N  N36  1  0.24909351  0.24868492  0.73972522  1
  N  N37  1  0.25082301  0.00578047  0.49975921  1
  N  N38  1  0.99963154  0.24331966  0.49480961  1
  N  N39  1  0.99216589  0.00107610  0.74222279  1
  N  N40  1  0.24913405  0.75072986  0.25127634  1
  N  N41  1  0.25020627  0.49944001  0.99981437  1
  N  N42  1  0.99955301  0.75089056  0.00106453  1
  N  N43  1  0.99883576  0.49111141  0.25101882  1
  N  N44  1  0.24987547  0.75101538  0.74822002  1
  N  N45  1  0.25017030  0.48971815  0.49999695  1
  N  N46  1  0.99292218  0.75911732  0.49916062  1
  N  N47  1  0.99936653  0.49925725  0.75006148  1
  N  N48  1  0.75615776  0.24260323  0.25966335  1
  N  N49  1  0.74995730  0.00026512  0.99890064  1
  N  N50  1  0.50005357  0.24949121  0.00078396  1
  N  N51  1  0.50832599  0.00108347  0.25721299  1
  N  N52  1  0.75097029  0.24219006  0.73916940  1
  N  N53  1  0.74966529  0.00106261  0.50026940  1
  N  N54  1  0.49996511  0.24300144  0.49882763  1
  N  N55  1  0.50805184  0.00026221  0.74218605  1
  N  N56  1  0.75105633  0.75892912  0.25940305  1
  N  N57  1  0.74972502  0.49994526  0.99994513  1
  N  N58  1  0.50066265  0.75088998  0.00003093  1
  N  N59  1  0.50106521  0.49886340  0.24995267  1
  N  N60  1  0.75023514  0.75859539  0.74069573  1
  N  N61  1  0.74973248  0.50012497  0.50017726  1
  N  N62  1  0.50720348  0.75873661  0.49983041  1
  N  N63  1  0.50080053  0.50000221  0.74970080  1
