# generated using pymatgen
data_TiAlN2
_symmetry_space_group_name_H-M   'P 1'
_cell_length_a   8.36201390
_cell_length_b   8.35680959
_cell_length_c   8.34896236
_cell_angle_alpha   90.07976318
_cell_angle_beta   90.04814885
_cell_angle_gamma   90.11529481
_symmetry_Int_Tables_number   1
_chemical_formula_structural   TiAlN2
_chemical_formula_sum   'Ti16 Al16 N32'
_cell_volume   583.42151474
_cell_formula_units_Z   16
loop_
 _symmetry_equiv_pos_site_id
 _symmetry_equiv_pos_as_xyz
  1  'x, y, z'
loop_
 _atom_site_type_symbol
 _atom_site_label
 _atom_site_symmetry_multiplicity
 _atom_site_fract_x
 _atom_site_fract_y
 _atom_site_fract_z
 _atom_site_occupancy
  Al  Al0  1  0.00642140  0.00051887  0.99717673  1
  Al  Al1  1  0.25178578  0.99858503  0.24942299  1
  Al  Al2  1  0.99787782  0.00021826  0.50051002  1
  Al  Al3  1  0.99520839  0.25134680  0.74866524  1
  Al  Al4  1  0.25619501  0.75150730  0.00095060  1
  Al  Al5  1  0.25136193  0.50247131  0.75640003  1
  Al  Al6  1  0.49892727  0.99566358  0.00097800  1
  Al  Al7  1  0.49749559  0.24759587  0.24614977  1
  Al  Al8  1  0.50213480  0.99476632  0.49578964  1
  Al  Al9  1  0.75076594  0.99769313  0.74766605  1
  Al  Al10  1  0.50079211  0.50579082  0.00097131  1
  Al  Al11  1  0.49995954  0.75095947  0.24932460  1
  Al  Al12  1  0.74147193  0.50269180  0.25169593  1
  Al  Al13  1  0.50284790  0.74932252  0.75192816  1
  Al  Al14  1  0.74805083  0.50157453  0.74965881  1
  Al  Al15  1  0.74621094  0.74969004  0.50132609  1
  Ti  Ti16  1  0.00099870  0.25634284  0.24887990  1
  Ti  Ti17  1  0.24910429  0.25185103  0.99716361  1
  Ti  Ti18  1  0.25265064  0.00549672  0.74524673  1
  Ti  Ti19  1  0.25177934  0.25253994  0.50364181  1
  Ti  Ti20  1  0.00087518  0.50050179  0.00722333  1
  Ti  Ti21  1  0.00091366  0.74398786  0.25004439  1
  Ti  Ti22  1  0.24289952  0.49727365  0.25522449  1
  Ti  Ti23  1  0.00405644  0.50098483  0.49470801  1
  Ti  Ti24  1  0.00336574  0.74796710  0.75075606  1
  Ti  Ti25  1  0.24584425  0.74622522  0.50159561  1
  Ti  Ti26  1  0.75636028  0.00452774  0.24491284  1
  Ti  Ti27  1  0.75174471  0.24794052  0.00280948  1
  Ti  Ti28  1  0.49692136  0.24698917  0.74914645  1
  Ti  Ti29  1  0.74694067  0.24971091  0.49610507  1
  Ti  Ti30  1  0.76071873  0.75243679  0.00432058  1
  Ti  Ti31  1  0.49155120  0.49538466  0.49931613  1
  N  N32  1  0.25745114  0.24319244  0.24873725  1
  N  N33  1  0.25259629  0.99364759  0.00405368  1
  N  N34  1  0.00055163  0.23956760  0.99273403  1
  N  N35  1  0.00679761  0.00096732  0.24880978  1
  N  N36  1  0.24102838  0.26112673  0.75179247  1
  N  N37  1  0.24945286  0.99706542  0.49262071  1
  N  N38  1  0.99772854  0.23923605  0.50600848  1
  N  N39  1  0.99408485  0.00692116  0.74953039  1
  N  N40  1  0.26003150  0.75419064  0.24453989  1
  N  N41  1  0.25912012  0.50848053  0.99567112  1
  N  N42  1  0.01246085  0.76095038  0.99920244  1
  N  N43  1  0.98598750  0.49956321  0.25035835  1
  N  N44  1  0.25993777  0.74357718  0.75722062  1
  N  N45  1  0.24857898  0.50169060  0.51247971  1
  N  N46  1  0.99131406  0.76086170  0.50189603  1
  N  N47  1  0.99743783  0.49385527  0.75191702  1
  N  N48  1  0.74151471  0.26131488  0.24978019  1
  N  N49  1  0.75091702  0.99808314  0.98913852  1
  N  N50  1  0.49958855  0.24400544  0.00587842  1
  N  N51  1  0.49736899  0.99976334  0.24832108  1
  N  N52  1  0.75425476  0.25525049  0.74833859  1
  N  N53  1  0.75001306  0.99254650  0.50592896  1
  N  N54  1  0.50034829  0.23760928  0.49084563  1
  N  N55  1  0.50748083  0.99240170  0.74981016  1
  N  N56  1  0.74053155  0.74356409  0.25777856  1
  N  N57  1  0.74174794  0.50289449  0.99774409  1
  N  N58  1  0.49784750  0.75381308  0.00186421  1
  N  N59  1  0.50371591  0.49887911  0.24324849  1
  N  N60  1  0.74424633  0.74628856  0.74503584  1
  N  N61  1  0.74667747  0.50689349  0.50307310  1
  N  N62  1  0.50417043  0.75607386  0.49866464  1
  N  N63  1  0.50078488  0.50516838  0.75726908  1
