# generated using pymatgen
data_TiAlN2
_symmetry_space_group_name_H-M   'P 1'
_cell_length_a   8.34790232
_cell_length_b   8.36130250
_cell_length_c   8.36090321
_cell_angle_alpha   90.05934336
_cell_angle_beta   89.98637865
_cell_angle_gamma   90.17485729
_symmetry_Int_Tables_number   1
_chemical_formula_structural   TiAlN2
_chemical_formula_sum   'Ti16 Al16 N32'
_cell_volume   583.58245031
_cell_formula_units_Z   16
loop_
 _symmetry_equiv_pos_site_id
 _symmetry_equiv_pos_as_xyz
  1  'x, y, z'
loop_
 _atom_site_type_symbol
 _atom_site_label
 _atom_site_symmetry_multiplicity
 _atom_site_fract_x
 _atom_site_fract_y
 _atom_site_fract_z
 _atom_site_occupancy
  Al  Al0  1  0.99955725  0.99691248  0.00159298  1
  Al  Al1  1  0.00406004  0.24891681  0.24952169  1
  Al  Al2  1  0.25147604  0.00630151  0.25293331  1
  Al  Al3  1  0.24369524  0.99973528  0.74534647  1
  Al  Al4  1  0.25086639  0.25098113  0.49874431  1
  Al  Al5  1  0.00158999  0.50055178  0.99870432  1
  Al  Al6  1  0.25350197  0.49397910  0.24834152  1
  Al  Al7  1  0.99889539  0.74823972  0.75823515  1
  Al  Al8  1  0.25170550  0.50029833  0.74934382  1
  Al  Al9  1  0.49849453  0.25310505  0.25375877  1
  Al  Al10  1  0.74865674  0.25555584  0.49727717  1
  Al  Al11  1  0.50128729  0.50215146  0.00013132  1
  Al  Al12  1  0.49851456  0.74681032  0.24927873  1
  Al  Al13  1  0.75191139  0.74707738  0.99851372  1
  Al  Al14  1  0.49867767  0.49750805  0.50161322  1
  Al  Al15  1  0.74704193  0.50259982  0.75124527  1
  Ti  Ti16  1  0.25443976  0.24594587  0.99129192  1
  Ti  Ti17  1  0.99346861  0.99418440  0.49783066  1
  Ti  Ti18  1  0.99496604  0.24784425  0.75124338  1
  Ti  Ti19  1  0.00106917  0.74857965  0.25977899  1
  Ti  Ti20  1  0.25210703  0.75400378  0.00272181  1
  Ti  Ti21  1  0.99866181  0.50694259  0.49676050  1
  Ti  Ti22  1  0.24409100  0.75030440  0.49702590  1
  Ti  Ti23  1  0.50220733  0.00164089  0.99475778  1
  Ti  Ti24  1  0.74833098  0.99757849  0.25314504  1
  Ti  Ti25  1  0.74642788  0.24548819  0.99815312  1
  Ti  Ti26  1  0.50571338  0.99713229  0.50428975  1
  Ti  Ti27  1  0.50290313  0.24263762  0.75653598  1
  Ti  Ti28  1  0.74332022  0.00026778  0.74640760  1
  Ti  Ti29  1  0.75623295  0.50374543  0.25204385  1
  Ti  Ti30  1  0.50106714  0.75821718  0.74761649  1
  Ti  Ti31  1  0.75565611  0.75120026  0.49427111  1
  N  N32  1  0.25167963  0.25005846  0.25629644  1
  N  N33  1  0.24183500  0.00022649  0.99859390  1
  N  N34  1  0.00002344  0.25076465  0.00729102  1
  N  N35  1  0.01018734  0.00657974  0.24138056  1
  N  N36  1  0.24801161  0.25074022  0.73933065  1
  N  N37  1  0.24897228  0.00789250  0.50014202  1
  N  N38  1  0.99818997  0.25148633  0.49227706  1
  N  N39  1  0.00735389  0.99352048  0.75937088  1
  N  N40  1  0.25790895  0.75060851  0.24917235  1
  N  N41  1  0.25025610  0.50004778  0.99835389  1
  N  N42  1  0.99441258  0.74772095  0.99741701  1
  N  N43  1  0.01101522  0.49242488  0.24046449  1
  N  N44  1  0.24406978  0.74929981  0.75151912  1
  N  N45  1  0.25640337  0.49346270  0.50063430  1
  N  N46  1  0.00003528  0.74951539  0.51496773  1
  N  N47  1  0.00401212  0.50471363  0.75806341  1
  N  N48  1  0.74957693  0.25168511  0.25685810  1
  N  N49  1  0.75898584  0.99196362  0.99875224  1
  N  N50  1  0.50059555  0.26054906  0.01343498  1
  N  N51  1  0.49006571  0.00026172  0.24878217  1
  N  N52  1  0.75032519  0.25942013  0.74065261  1
  N  N53  1  0.74971625  0.01074145  0.49979740  1
  N  N54  1  0.50137745  0.25699991  0.49202094  1
  N  N55  1  0.48396414  0.99966178  0.74967288  1
  N  N56  1  0.74186291  0.74891897  0.24081568  1
  N  N57  1  0.75164273  0.50412734  0.99306382  1
  N  N58  1  0.50793066  0.74144618  0.00631686  1
  N  N59  1  0.49384316  0.50026443  0.24860459  1
  N  N60  1  0.75544058  0.74219324  0.75584346  1
  N  N61  1  0.74265417  0.49448488  0.50766015  1
  N  N62  1  0.50083757  0.74090111  0.49195249  1
  N  N63  1  0.49622019  0.50088143  0.75204119  1
