# generated using pymatgen
data_TiAlN2
_symmetry_space_group_name_H-M   'P 1'
_cell_length_a   8.35633466
_cell_length_b   8.35391408
_cell_length_c   8.35590363
_cell_angle_alpha   89.97844442
_cell_angle_beta   89.93235926
_cell_angle_gamma   89.76767919
_symmetry_Int_Tables_number   1
_chemical_formula_structural   TiAlN2
_chemical_formula_sum   'Ti16 Al16 N32'
_cell_volume   583.30452938
_cell_formula_units_Z   16
loop_
 _symmetry_equiv_pos_site_id
 _symmetry_equiv_pos_as_xyz
  1  'x, y, z'
loop_
 _atom_site_type_symbol
 _atom_site_label
 _atom_site_symmetry_multiplicity
 _atom_site_fract_x
 _atom_site_fract_y
 _atom_site_fract_z
 _atom_site_occupancy
  Ti  Ti0  1  0.99492274  0.99689024  0.99340178  1
  Ti  Ti1  1  0.99813490  0.00047389  0.50541654  1
  Ti  Ti2  1  0.99660903  0.24343919  0.74614934  1
  Ti  Ti3  1  0.25248573  0.25571745  0.49747231  1
  Ti  Ti4  1  0.25202970  0.50053684  0.25988238  1
  Ti  Ti5  1  0.24344056  0.74974731  0.00052051  1
  Ti  Ti6  1  0.00547757  0.49733276  0.50167525  1
  Ti  Ti7  1  0.99943846  0.75563197  0.75142403  1
  Ti  Ti8  1  0.24722003  0.74168547  0.49962713  1
  Ti  Ti9  1  0.49939408  0.25392150  0.25751563  1
  Ti  Ti10  1  0.75217132  0.00335878  0.25021173  1
  Ti  Ti11  1  0.50408005  0.24975570  0.74242667  1
  Ti  Ti12  1  0.75785779  0.00210310  0.74909015  1
  Ti  Ti13  1  0.74723785  0.24924482  0.49989572  1
  Ti  Ti14  1  0.75601801  0.76047174  0.99589830  1
  Ti  Ti15  1  0.49406897  0.49379153  0.49601353  1
  Al  Al16  1  0.00075068  0.25076065  0.24372744  1
  Al  Al17  1  0.24994537  0.00023926  0.24938248  1
  Al  Al18  1  0.25159705  0.25020634  0.99984427  1
  Al  Al19  1  0.25754701  0.00086635  0.75058069  1
  Al  Al20  1  0.99841071  0.49495442  0.00050634  1
  Al  Al21  1  0.99734088  0.74881882  0.25142484  1
  Al  Al22  1  0.25131244  0.49818552  0.75888258  1
  Al  Al23  1  0.49670383  0.00205333  0.99971906  1
  Al  Al24  1  0.74699642  0.25584314  0.00112324  1
  Al  Al25  1  0.49688465  0.99108000  0.49965184  1
  Al  Al26  1  0.50171414  0.50130021  0.99922421  1
  Al  Al27  1  0.50238867  0.75171615  0.24756675  1
  Al  Al28  1  0.75210732  0.50304601  0.24597188  1
  Al  Al29  1  0.50025617  0.74948620  0.75108408  1
  Al  Al30  1  0.74907578  0.50319632  0.75264295  1
  Al  Al31  1  0.74564701  0.74543643  0.49872548  1
  N  N32  1  0.24280583  0.24322516  0.24097898  1
  N  N33  1  0.25700190  0.00644313  0.99776235  1
  N  N34  1  0.99852414  0.25562593  0.00575472  1
  N  N35  1  0.00729599  0.99830391  0.24862635  1
  N  N36  1  0.25092545  0.25028309  0.75836344  1
  N  N37  1  0.25727486  0.99834672  0.50259029  1
  N  N38  1  0.99876985  0.24863364  0.48786105  1
  N  N39  1  0.01640049  0.99956223  0.74990614  1
  N  N40  1  0.24891299  0.75729642  0.25017005  1
  N  N41  1  0.25124177  0.49361565  0.99591210  1
  N  N42  1  0.99895426  0.73979321  0.01048857  1
  N  N43  1  0.99440998  0.50118570  0.24313839  1
  N  N44  1  0.25828956  0.74933258  0.75187634  1
  N  N45  1  0.25021765  0.49974728  0.51772717  1
  N  N46  1  0.99056157  0.74877457  0.49084845  1
  N  N47  1  0.00154111  0.50022151  0.75879697  1
  N  N48  1  0.75711438  0.25911594  0.24214054  1
  N  N49  1  0.73796743  0.01232876  0.99983625  1
  N  N50  1  0.50023687  0.25067274  0.00084934  1
  N  N51  1  0.49329664  0.99343521  0.24899031  1
  N  N52  1  0.74991596  0.26129815  0.75785255  1
  N  N53  1  0.74104197  0.99181222  0.49882705  1
  N  N54  1  0.50068722  0.23601908  0.49979670  1
  N  N55  1  0.49441843  0.99218392  0.75006569  1
  N  N56  1  0.75053262  0.74519950  0.25392094  1
  N  N57  1  0.74869186  0.49705287  0.99780855  1
  N  N58  1  0.50065162  0.75162635  0.00226027  1
  N  N59  1  0.50779319  0.50932699  0.24040834  1
  N  N60  1  0.74197327  0.74260760  0.74305643  1
  N  N61  1  0.74877699  0.50503550  0.50247419  1
  N  N62  1  0.50523688  0.75377118  0.49643488  1
  N  N63  1  0.49927232  0.50683178  0.75779748  1
