# generated using pymatgen
data_TiAl3N4
_symmetry_space_group_name_H-M   'P 1'
_cell_length_a   8.26912835
_cell_length_b   8.25976705
_cell_length_c   8.27128244
_cell_angle_alpha   90.03953129
_cell_angle_beta   90.13297499
_cell_angle_gamma   90.01125027
_symmetry_Int_Tables_number   1
_chemical_formula_structural   TiAl3N4
_chemical_formula_sum   'Ti8 Al24 N32'
_cell_volume   564.93580575
_cell_formula_units_Z   8
loop_
 _symmetry_equiv_pos_site_id
 _symmetry_equiv_pos_as_xyz
  1  'x, y, z'
loop_
 _atom_site_type_symbol
 _atom_site_label
 _atom_site_symmetry_multiplicity
 _atom_site_fract_x
 _atom_site_fract_y
 _atom_site_fract_z
 _atom_site_occupancy
  Ti  Ti0  1  0.00560915  0.99197307  0.00406193  1
  Ti  Ti1  1  0.24286244  0.99886973  0.24146298  1
  Ti  Ti2  1  0.00715543  0.24369429  0.74878396  1
  Ti  Ti3  1  0.24965584  0.24374734  0.50538187  1
  Ti  Ti4  1  0.24262856  0.76282048  0.00747060  1
  Ti  Ti5  1  0.49283712  0.24969335  0.74293078  1
  Ti  Ti6  1  0.75076318  0.50323336  0.24294453  1
  Ti  Ti7  1  0.75712503  0.75424551  0.00356072  1
  Al  Al8  1  0.99889923  0.25149352  0.24916543  1
  Al  Al9  1  0.25171892  0.25304235  0.00231576  1
  Al  Al10  1  0.99585530  0.99642252  0.49958704  1
  Al  Al11  1  0.25200158  0.99292461  0.74977751  1
  Al  Al12  1  0.00484872  0.49641282  0.99797849  1
  Al  Al13  1  0.00056869  0.74860080  0.25669758  1
  Al  Al14  1  0.25018380  0.49910840  0.25002362  1
  Al  Al15  1  0.00000621  0.50033276  0.50108964  1
  Al  Al16  1  0.99954761  0.74822821  0.74473769  1
  Al  Al17  1  0.24978872  0.50663655  0.75199832  1
  Al  Al18  1  0.25080057  0.74893915  0.50172203  1
  Al  Al19  1  0.50249347  0.00248789  0.00035937  1
  Al  Al20  1  0.49998679  0.24972565  0.24796594  1
  Al  Al21  1  0.74869582  0.00298682  0.25155889  1
  Al  Al22  1  0.74955182  0.24911955  0.99801840  1
  Al  Al23  1  0.50258394  0.99589051  0.49699237  1
  Al  Al24  1  0.74870134  0.00051862  0.74896731  1
  Al  Al25  1  0.75010180  0.25009508  0.49932952  1
  Al  Al26  1  0.49633781  0.50072803  0.99891425  1
  Al  Al27  1  0.49880085  0.75159033  0.25047861  1
  Al  Al28  1  0.49999112  0.50325465  0.49875573  1
  Al  Al29  1  0.50085275  0.74999198  0.75103875  1
  Al  Al30  1  0.75045119  0.49898937  0.74939309  1
  Al  Al31  1  0.74902068  0.75029898  0.50223113  1
  N  N32  1  0.24927736  0.25811185  0.24372284  1
  N  N33  1  0.26338157  0.01387284  0.98751290  1
  N  N34  1  0.99769694  0.25763042  0.00843517  1
  N  N35  1  0.99035467  0.99773512  0.26057673  1
  N  N36  1  0.25021049  0.25250389  0.76062492  1
  N  N37  1  0.25112774  0.99308965  0.50879199  1
  N  N38  1  0.99200618  0.25054130  0.49050005  1
  N  N39  1  0.99971638  0.99068656  0.74169494  1
  N  N40  1  0.24967241  0.74174604  0.26092693  1
  N  N41  1  0.25194148  0.49460781  0.99776022  1
  N  N42  1  0.99976602  0.73591078  0.00297895  1
  N  N43  1  0.00376883  0.50204514  0.25214056  1
  N  N44  1  0.24983534  0.74901949  0.74458513  1
  N  N45  1  0.25026201  0.50374255  0.50386275  1
  N  N46  1  0.99872138  0.74766299  0.49937708  1
  N  N47  1  0.00066791  0.50563108  0.74850719  1
  N  N48  1  0.74988560  0.24656997  0.24940466  1
  N  N49  1  0.74160764  0.00896768  0.99655935  1
  N  N50  1  0.50263727  0.25342836  0.00656469  1
  N  N51  1  0.50555482  0.99863024  0.25107455  1
  N  N52  1  0.74985489  0.24909187  0.74884780  1
  N  N53  1  0.74830846  0.00043395  0.50291615  1
  N  N54  1  0.50771123  0.25036254  0.48907155  1
  N  N55  1  0.50077315  0.99417620  0.74678906  1
  N  N56  1  0.75009595  0.75718619  0.25941509  1
  N  N57  1  0.74765578  0.49241045  0.99204472  1
  N  N58  1  0.50050827  0.74930253  0.00190065  1
  N  N59  1  0.49608200  0.50275114  0.25068041  1
  N  N60  1  0.75048025  0.75069846  0.74390657  1
  N  N61  1  0.74951971  0.49980672  0.50563650  1
  N  N62  1  0.50110925  0.74946414  0.49909367  1
  N  N63  1  0.49938355  0.50608580  0.74840241  1
