# generated using pymatgen
data_TiAl3N4
_symmetry_space_group_name_H-M   'P 1'
_cell_length_a   8.27076771
_cell_length_b   8.28688440
_cell_length_c   8.23859853
_cell_angle_alpha   89.89998570
_cell_angle_beta   89.98300696
_cell_angle_gamma   89.76946082
_symmetry_Int_Tables_number   1
_chemical_formula_structural   TiAl3N4
_chemical_formula_sum   'Ti8 Al24 N32'
_cell_volume   564.65899216
_cell_formula_units_Z   8
loop_
 _symmetry_equiv_pos_site_id
 _symmetry_equiv_pos_as_xyz
  1  'x, y, z'
loop_
 _atom_site_type_symbol
 _atom_site_label
 _atom_site_symmetry_multiplicity
 _atom_site_fract_x
 _atom_site_fract_y
 _atom_site_fract_z
 _atom_site_occupancy
  Al  Al0  1  0.00261407  0.00003013  0.99705555  1
  Al  Al1  1  0.25466558  0.99586961  0.25351775  1
  Al  Al2  1  0.00052406  0.25326016  0.75014865  1
  Al  Al3  1  0.25168111  0.99904837  0.74580282  1
  Al  Al4  1  0.25176185  0.25064594  0.50120561  1
  Al  Al5  1  0.00096569  0.50115067  0.00070198  1
  Al  Al6  1  0.24778537  0.50214551  0.25035975  1
  Al  Al7  1  0.25013528  0.74883975  0.99977059  1
  Al  Al8  1  0.00039114  0.49848219  0.49980530  1
  Al  Al9  1  0.24794616  0.50181364  0.75023333  1
  Al  Al10  1  0.25446714  0.74846259  0.49999183  1
  Al  Al11  1  0.50166263  0.25320439  0.25402729  1
  Al  Al12  1  0.75200191  0.25523556  0.99736844  1
  Al  Al13  1  0.49769196  0.00009426  0.49953249  1
  Al  Al14  1  0.50114486  0.25352524  0.74716275  1
  Al  Al15  1  0.74668821  0.25582872  0.50314239  1
  Al  Al16  1  0.49968652  0.50120743  0.00033212  1
  Al  Al17  1  0.49881705  0.74697280  0.24980299  1
  Al  Al18  1  0.75081762  0.49941969  0.24946668  1
  Al  Al19  1  0.74850493  0.74487907  0.00065867  1
  Al  Al20  1  0.49762444  0.49968033  0.49985606  1
  Al  Al21  1  0.49773537  0.74699939  0.75010917  1
  Al  Al22  1  0.75078239  0.49918434  0.75065669  1
  Al  Al23  1  0.74151935  0.74288874  0.49900481  1
  Ti  Ti24  1  0.99408080  0.23882718  0.25560207  1
  Ti  Ti25  1  0.25369330  0.24320376  0.00201970  1
  Ti  Ti26  1  0.99130062  0.99682355  0.49563039  1
  Ti  Ti27  1  0.99340697  0.76039680  0.25504675  1
  Ti  Ti28  1  0.99287455  0.76160889  0.74467213  1
  Ti  Ti29  1  0.50459445  0.00420636  0.00019578  1
  Ti  Ti30  1  0.76176088  0.00024339  0.25344705  1
  Ti  Ti31  1  0.75736822  0.99510552  0.74689861  1
  N  N32  1  0.25800899  0.25119556  0.25466538  1
  N  N33  1  0.24549055  0.99136021  0.99954962  1
  N  N34  1  0.99499658  0.25295950  0.99500785  1
  N  N35  1  0.01711769  0.99984170  0.23817113  1
  N  N36  1  0.25376380  0.25186860  0.74638336  1
  N  N37  1  0.25603753  0.99929662  0.49942919  1
  N  N38  1  0.99843215  0.25793466  0.50770999  1
  N  N39  1  0.01348325  0.01276314  0.75692265  1
  N  N40  1  0.25754771  0.74825647  0.25141431  1
  N  N41  1  0.24975612  0.50588814  0.00011122  1
  N  N42  1  0.99754474  0.74780154  0.99820301  1
  N  N43  1  0.00116845  0.49901655  0.24881602  1
  N  N44  1  0.25591121  0.74965602  0.74832266  1
  N  N45  1  0.24962509  0.50040800  0.50027212  1
  N  N46  1  0.99718934  0.73929982  0.50058999  1
  N  N47  1  0.00125565  0.49457856  0.75150565  1
  N  N48  1  0.74127981  0.25881426  0.25149217  1
  N  N49  1  0.76068382  0.99826218  0.99873347  1
  N  N50  1  0.50934449  0.25817414  0.99912729  1
  N  N51  1  0.49271587  0.00077443  0.25333857  1
  N  N52  1  0.74779487  0.25759689  0.74925472  1
  N  N53  1  0.73815567  0.99913173  0.50048120  1
  N  N54  1  0.50077967  0.25147786  0.50103005  1
  N  N55  1  0.49185597  0.00204500  0.74639368  1
  N  N56  1  0.73934287  0.74058981  0.25061129  1
  N  N57  1  0.75073986  0.50111999  0.00010626  1
  N  N58  1  0.50177726  0.74410789  0.99945486  1
  N  N59  1  0.49735502  0.49920720  0.25071724  1
  N  N60  1  0.73910711  0.74011844  0.74897008  1
  N  N61  1  0.74815649  0.50002600  0.50016823  1
  N  N62  1  0.49946478  0.74827272  0.50034682  1
  N  N63  1  0.49742309  0.49887241  0.74947374  1
