# generated using pymatgen
data_TiAl3N4
_symmetry_space_group_name_H-M   'P 1'
_cell_length_a   8.27832524
_cell_length_b   8.25625409
_cell_length_c   8.26455661
_cell_angle_alpha   90.10041760
_cell_angle_beta   89.69216495
_cell_angle_gamma   90.24129541
_symmetry_Int_Tables_number   1
_chemical_formula_structural   TiAl3N4
_chemical_formula_sum   'Ti8 Al24 N32'
_cell_volume   564.85154927
_cell_formula_units_Z   8
loop_
 _symmetry_equiv_pos_site_id
 _symmetry_equiv_pos_as_xyz
  1  'x, y, z'
loop_
 _atom_site_type_symbol
 _atom_site_label
 _atom_site_symmetry_multiplicity
 _atom_site_fract_x
 _atom_site_fract_y
 _atom_site_fract_z
 _atom_site_occupancy
  Ti  Ti0  1  0.99414288  0.99217828  0.98842192  1
  Ti  Ti1  1  0.99908043  0.24855876  0.75148370  1
  Ti  Ti2  1  0.00522768  0.50801897  0.51029692  1
  Ti  Ti3  1  0.00034960  0.75177888  0.75175601  1
  Ti  Ti4  1  0.24821059  0.74569442  0.50677825  1
  Ti  Ti5  1  0.49095158  0.99197945  0.49799075  1
  Ti  Ti6  1  0.76483806  0.75669767  0.99033758  1
  Ti  Ti7  1  0.49315135  0.50721597  0.49960335  1
  Al  Al8  1  0.99935226  0.24996559  0.25021451  1
  Al  Al9  1  0.24582713  0.99955255  0.24585482  1
  Al  Al10  1  0.25173647  0.24914243  0.00328026  1
  Al  Al11  1  0.99809148  0.00100771  0.49567500  1
  Al  Al12  1  0.25233976  0.00108156  0.75318792  1
  Al  Al13  1  0.24899850  0.24830783  0.49777439  1
  Al  Al14  1  0.00095907  0.49827528  0.00385306  1
  Al  Al15  1  0.00138828  0.74985068  0.25054255  1
  Al  Al16  1  0.24781746  0.49925350  0.24472269  1
  Al  Al17  1  0.25314749  0.74902481  0.00241173  1
  Al  Al18  1  0.25311532  0.49771214  0.75963465  1
  Al  Al19  1  0.49944501  0.00084229  0.00036942  1
  Al  Al20  1  0.49982635  0.25009856  0.24911958  1
  Al  Al21  1  0.75136962  0.00078261  0.25181270  1
  Al  Al22  1  0.74794799  0.25148774  0.00246983  1
  Al  Al23  1  0.49967443  0.25032502  0.75123347  1
  Al  Al24  1  0.74519796  0.00277066  0.74379922  1
  Al  Al25  1  0.74833194  0.25099865  0.49664314  1
  Al  Al26  1  0.50215246  0.49980789  0.00191027  1
  Al  Al27  1  0.50192252  0.74980895  0.24251476  1
  Al  Al28  1  0.75271002  0.50091192  0.24963556  1
  Al  Al29  1  0.50083270  0.74949945  0.75839577  1
  Al  Al30  1  0.74685553  0.49859140  0.75080811  1
  Al  Al31  1  0.75143324  0.75071672  0.49738844  1
  N  N32  1  0.25131834  0.24970072  0.25055074  1
  N  N33  1  0.25656050  0.00232861  0.99903470  1
  N  N34  1  0.00110038  0.25576395  0.00748906  1
  N  N35  1  0.99947051  0.00031066  0.25205445  1
  N  N36  1  0.25658960  0.24958515  0.75100391  1
  N  N37  1  0.24153687  0.00816676  0.50022281  1
  N  N38  1  0.99710216  0.24521398  0.49266449  1
  N  N39  1  0.00048604  0.00163186  0.73868938  1
  N  N40  1  0.25411358  0.74940665  0.24611074  1
  N  N41  1  0.25308452  0.49584504  0.00136316  1
  N  N42  1  0.01413958  0.73917100  0.01262264  1
  N  N43  1  0.00071359  0.49939459  0.24644724  1
  N  N44  1  0.26206432  0.74898562  0.75963972  1
  N  N45  1  0.24877749  0.48846809  0.50288760  1
  N  N46  1  0.99046932  0.75862085  0.48835205  1
  N  N47  1  0.00113012  0.49912560  0.76211309  1
  N  N48  1  0.74776094  0.25025942  0.24959833  1
  N  N49  1  0.74082263  0.01001984  0.99731870  1
  N  N50  1  0.49903864  0.25115484  0.00086452  1
  N  N51  1  0.49920422  0.99996870  0.24450077  1
  N  N52  1  0.74262459  0.25062957  0.74920495  1
  N  N53  1  0.75295093  0.00395332  0.49925613  1
  N  N54  1  0.50044127  0.24874041  0.49929076  1
  N  N55  1  0.49920205  0.99984811  0.75409094  1
  N  N56  1  0.74829812  0.75077159  0.25328973  1
  N  N57  1  0.74971340  0.49378101  0.99962301  1
  N  N58  1  0.49642599  0.74928305  0.00161936  1
  N  N59  1  0.49978472  0.50003026  0.24471910  1
  N  N60  1  0.73925760  0.75024593  0.74034905  1
  N  N61  1  0.75001287  0.49715430  0.50118903  1
  N  N62  1  0.50934797  0.75056545  0.49680146  1
  N  N63  1  0.50003198  0.49993669  0.75711803  1
