# generated using pymatgen
data_TiAlN2
_symmetry_space_group_name_H-M   'P 1'
_cell_length_a   5.19511989
_cell_length_b   5.06027752
_cell_length_c   5.84363518
_cell_angle_alpha   90.01548127
_cell_angle_beta   106.32280916
_cell_angle_gamma   99.32865096
_symmetry_Int_Tables_number   1
_chemical_formula_structural   TiAlN2
_chemical_formula_sum   'Ti4 Al4 N8'
_cell_volume   145.30965823
_cell_formula_units_Z   4
loop_
 _symmetry_equiv_pos_site_id
 _symmetry_equiv_pos_as_xyz
  1  'x, y, z'
loop_
 _atom_site_type_symbol
 _atom_site_label
 _atom_site_symmetry_multiplicity
 _atom_site_fract_x
 _atom_site_fract_y
 _atom_site_fract_z
 _atom_site_occupancy
  Al  Al0  1  0.50000000  0.75000000  0.62500000  1
  Al  Al1  1  0.50000000  0.75000000  0.12500000  1
  Al  Al2  1  0.50000000  0.25000000  0.37500000  1
  Al  Al3  1  0.50000000  0.25000000  0.87500000  1
  N  N4  1  0.73139966  0.62177747  0.43295182  1
  N  N5  1  0.26860034  0.37822253  0.06704818  1
  N  N6  1  0.73139966  0.62177747  0.93295182  1
  N  N7  1  0.26860034  0.37822253  0.56704818  1
  N  N8  1  0.26860034  0.87822253  0.31704818  1
  N  N9  1  0.73139966  0.12177747  0.18295182  1
  N  N10  1  0.26860034  0.87822253  0.81704818  1
  N  N11  1  0.73139966  0.12177747  0.68295182  1
  Ti  Ti12  1  0.00000000  0.50000000  0.25000000  1
  Ti  Ti13  1  0.00000000  0.50000000  0.75000000  1
  Ti  Ti14  1  0.00000000  0.00000000  0.50000000  1
  Ti  Ti15  1  0.00000000  0.00000000  0.00000000  1
