# generated using pymatgen
data_TiAlN2
_symmetry_space_group_name_H-M   'P 1'
_cell_length_a   7.24978200
_cell_length_b   7.21858686
_cell_length_c   6.61717344
_cell_angle_alpha   111.62134434
_cell_angle_beta   111.55859250
_cell_angle_gamma   70.57363717
_symmetry_Int_Tables_number   1
_chemical_formula_structural   TiAlN2
_chemical_formula_sum   'Ti8 Al8 N16'
_cell_volume   291.51855816
_cell_formula_units_Z   8
loop_
 _symmetry_equiv_pos_site_id
 _symmetry_equiv_pos_as_xyz
  1  'x, y, z'
loop_
 _atom_site_type_symbol
 _atom_site_label
 _atom_site_symmetry_multiplicity
 _atom_site_fract_x
 _atom_site_fract_y
 _atom_site_fract_z
 _atom_site_occupancy
  Al  Al0  1  0.24695377  0.25098537  0.00823287  1
  Al  Al1  1  0.93283639  0.43784085  0.24547124  1
  Al  Al2  1  0.17919756  0.68219428  0.24300949  1
  Al  Al3  1  0.99421257  0.00218300  0.99990609  1
  Al  Al4  1  0.81970025  0.31103276  0.75385961  1
  Al  Al5  1  0.87699131  0.87871785  0.50001430  1
  Al  Al6  1  0.68930376  0.18711107  0.24848674  1
  Al  Al7  1  0.75698918  0.75102238  0.00375060  1
  N  N8  1  0.50611244  0.00504363  0.00783221  1
  N  N9  1  0.58069611  0.56182907  0.76052981  1
  N  N10  1  0.36603047  0.86472421  0.48824558  1
  N  N11  1  0.43032517  0.43277378  0.24330829  1
  N  N12  1  0.23898636  0.75604066  0.00760151  1
  N  N13  1  0.05596061  0.06628075  0.75846747  1
  N  N14  1  0.30738713  0.30850382  0.76539218  1
  N  N15  1  0.11551706  0.62951954  0.48441278  1
  N  N16  1  0.93429769  0.93207992  0.24198750  1
  N  N17  1  0.17832463  0.19172382  0.23811597  1
  N  N18  1  0.99719174  0.49696566  0.00155126  1
  N  N19  1  0.81624225  0.81720375  0.75455784  1
  N  N20  1  0.87013431  0.37011077  0.48966819  1
  N  N21  1  0.70055598  0.69000972  0.25186733  1
  N  N22  1  0.75927423  0.24982383  0.00784408  1
  N  N23  1  0.64203953  0.12707161  0.50114991  1
  Ti  Ti24  1  0.49324463  0.49882979  0.98751256  1
  Ti  Ti25  1  0.55307865  0.06689046  0.74160714  1
  Ti  Ti26  1  0.37612995  0.37356523  0.51312972  1
  Ti  Ti27  1  0.43699125  0.93400548  0.25406643  1
  Ti  Ti28  1  0.07199896  0.55854932  0.74159228  1
  Ti  Ti29  1  0.31843625  0.81254257  0.75260848  1
  Ti  Ti30  1  0.13676992  0.12665416  0.50359632  1
  Ti  Ti31  1  0.61808990  0.62817088  0.50062420  1
