# generated using pymatgen
data_TiAl3N4
_symmetry_space_group_name_H-M   'P 1'
_cell_length_a   7.17398065
_cell_length_b   7.17398064
_cell_length_c   2.90732300
_cell_angle_alpha   90.00000000
_cell_angle_beta   90.00000000
_cell_angle_gamma   109.04676202
_symmetry_Int_Tables_number   1
_chemical_formula_structural   TiAl3N4
_chemical_formula_sum   'Ti2 Al6 N8'
_cell_volume   141.43651347
_cell_formula_units_Z   2
loop_
 _symmetry_equiv_pos_site_id
 _symmetry_equiv_pos_as_xyz
  1  'x, y, z'
loop_
 _atom_site_type_symbol
 _atom_site_label
 _atom_site_symmetry_multiplicity
 _atom_site_fract_x
 _atom_site_fract_y
 _atom_site_fract_z
 _atom_site_occupancy
  Al  Al0  1  0.87539789  0.12460211  0.50000000  1
  Al  Al1  1  0.75000000  0.75000000  0.00000000  1
  Al  Al2  1  0.99156215  0.49156215  0.00000000  1
  Al  Al3  1  0.25000000  0.25000000  0.00000000  1
  Al  Al4  1  0.62460211  0.37539789  0.50000000  1
  Al  Al5  1  0.50843785  0.00843785  0.00000000  1
  N  N6  1  0.11760853  0.36859736  0.50000000  1
  N  N7  1  0.99287429  0.00712571  0.00000000  1
  N  N8  1  0.38239147  0.13140264  0.50000000  1
  N  N9  1  0.25000000  0.75000000  0.00000000  1
  N  N10  1  0.63140264  0.88239147  0.50000000  1
  N  N11  1  0.50712571  0.49287429  0.00000000  1
  N  N12  1  0.86859736  0.61760853  0.50000000  1
  N  N13  1  0.75000000  0.25000000  0.00000000  1
  Ti  Ti14  1  0.12915123  0.87084877  0.50000000  1
  Ti  Ti15  1  0.37084877  0.62915123  0.50000000  1
