# generated using pymatgen
data_TiAl3N4
_symmetry_space_group_name_H-M   'P 1'
_cell_length_a   7.15022118
_cell_length_b   7.12198441
_cell_length_c   7.15022118
_cell_angle_alpha   109.25475213
_cell_angle_beta   109.39489684
_cell_angle_gamma   109.25475213
_symmetry_Int_Tables_number   1
_chemical_formula_structural   TiAl3N4
_chemical_formula_sum   'Ti4 Al12 N16'
_cell_volume   282.04423707
_cell_formula_units_Z   4
loop_
 _symmetry_equiv_pos_site_id
 _symmetry_equiv_pos_as_xyz
  1  'x, y, z'
loop_
 _atom_site_type_symbol
 _atom_site_label
 _atom_site_symmetry_multiplicity
 _atom_site_fract_x
 _atom_site_fract_y
 _atom_site_fract_z
 _atom_site_occupancy
  Al  Al0  1  0.75252282  0.50489901  0.25599556  1
  Al  Al1  1  0.49835103  0.74845914  0.25096968  1
  Al  Al2  1  0.49747718  0.49510099  0.49400444  1
  Al  Al3  1  0.75164897  0.25154086  0.49903032  1
  Al  Al4  1  0.00599556  0.50489901  0.00252282  1
  Al  Al5  1  0.24903032  0.25154086  0.00164897  1
  Al  Al6  1  0.25086877  0.00000000  0.24913123  1
  Al  Al7  1  0.24256659  0.74357875  0.49256659  1
  Al  Al8  1  0.24400444  0.49510099  0.74747718  1
  Al  Al9  1  0.00743341  0.25642125  0.25743341  1
  Al  Al10  1  0.99913123  0.00000000  0.50086877  1
  Al  Al11  1  0.00096968  0.74845914  0.74835103  1
  N  N12  1  0.77259446  0.27343929  0.02259446  1
  N  N13  1  0.75761280  0.00708855  0.26465723  1
  N  N14  1  0.49377157  0.50000000  0.00622843  1
  N  N15  1  0.50054611  0.25552962  0.25465258  1
  N  N16  1  0.49238720  0.99291145  0.48534277  1
  N  N17  1  0.74945389  0.74447038  0.49534742  1
  N  N18  1  0.75622843  0.50000000  0.74377157  1
  N  N19  1  0.01465723  0.00708855  0.00761280  1
  N  N20  1  0.24534742  0.74447038  0.99945389  1
  N  N21  1  0.25054796  0.50000000  0.24945204  1
  N  N22  1  0.24482462  0.24890636  0.49482462  1
  N  N23  1  0.23534277  0.99291145  0.74238720  1
  N  N24  1  0.47740554  0.72656071  0.72740554  1
  N  N25  1  0.00517538  0.75109364  0.25517538  1
  N  N26  1  0.99945204  0.50000000  0.50054796  1
  N  N27  1  0.00465258  0.25552962  0.75054611  1
  Ti  Ti28  1  0.74540301  0.75590053  0.99540301  1
  Ti  Ti29  1  0.50813975  0.00000000  0.99186025  1
  Ti  Ti30  1  0.74186025  0.00000000  0.75813975  1
  Ti  Ti31  1  0.50459699  0.24409947  0.75459699  1
