# generated using pymatgen
data_TiAl3N4
_symmetry_space_group_name_H-M   'P 1'
_cell_length_a   7.75081315
_cell_length_b   8.77179605
_cell_length_c   9.67588614
_cell_angle_alpha   110.56177166
_cell_angle_beta   96.72892921
_cell_angle_gamma   108.55788694
_symmetry_Int_Tables_number   1
_chemical_formula_structural   TiAl3N4
_chemical_formula_sum   'Ti8 Al24 N32'
_cell_volume   564.15392671
_cell_formula_units_Z   8
loop_
 _symmetry_equiv_pos_site_id
 _symmetry_equiv_pos_as_xyz
  1  'x, y, z'
loop_
 _atom_site_type_symbol
 _atom_site_label
 _atom_site_symmetry_multiplicity
 _atom_site_fract_x
 _atom_site_fract_y
 _atom_site_fract_z
 _atom_site_occupancy
  Al  Al0  1  0.01224677  0.81569032  0.07956176  1
  Al  Al1  1  0.23455974  0.18681533  0.17149702  1
  Al  Al2  1  0.45057184  0.55903322  0.26385186  1
  Al  Al3  1  0.61149204  0.68374558  0.04767472  1
  Al  Al4  1  0.05212270  0.44081514  0.23231216  1
  Al  Al5  1  0.63692744  0.31548211  0.20205131  1
  Al  Al6  1  0.26493048  0.81208484  0.32929877  1
  Al  Al7  1  0.48045166  0.18536818  0.42113677  1
  Al  Al8  1  0.85839375  0.68567877  0.29441035  1
  Al  Al9  1  0.08120465  0.06373897  0.39122570  1
  Al  Al10  1  0.30215382  0.43735069  0.48360428  1
  Al  Al11  1  0.67073407  0.93618865  0.36293006  1
  Al  Al12  1  0.69554144  0.55750537  0.51309781  1
  Al  Al13  1  0.51413716  0.81033384  0.57901257  1
  Al  Al14  1  0.33377076  0.06530279  0.64039640  1
  Al  Al15  1  0.54903175  0.43908741  0.73507911  1
  Al  Al16  1  0.14229282  0.30664245  0.70154862  1
  Al  Al17  1  0.73317760  0.18589140  0.67224106  1
  Al  Al18  1  0.57923503  0.06704052  0.88866046  1
  Al  Al19  1  0.17535102  0.94617007  0.86391092  1
  Al  Al20  1  0.39248411  0.31415255  0.95441905  1
  Al  Al21  1  0.76352017  0.81103387  0.82870847  1
  Al  Al22  1  0.98448608  0.18745997  0.92365299  1
  Al  Al23  1  0.79631808  0.43976081  0.98311347  1
  N  N24  1  0.81178733  0.25628098  0.06322371  1
  N  N25  1  0.41026903  0.13246490  0.02941710  1
  N  N26  1  0.62389259  0.50067072  0.12549168  1
  N  N27  1  0.84249288  0.87399696  0.22281364  1
  N  N28  1  0.00352664  0.00206931  0.99684692  1
  N  N29  1  0.21834530  0.37021862  0.09496819  1
  N  N30  1  0.44492951  0.74878459  0.19321873  1
  N  N31  1  0.02776716  0.62749900  0.15922462  1
  N  N32  1  0.64762499  0.12667168  0.28655275  1
  N  N33  1  0.86757495  0.50141040  0.36831560  1
  N  N34  1  0.24405307  0.00145728  0.25292218  1
  N  N35  1  0.46973145  0.37298365  0.34188874  1
  N  N36  1  0.68402988  0.74499571  0.43416242  1
  N  N37  1  0.07563734  0.25416062  0.31247950  1
  N  N38  1  0.28599985  0.62313721  0.40247505  1
  N  N39  1  0.09918197  0.87896196  0.46363553  1
  N  N40  1  0.90402810  0.12219685  0.53036251  1
  N  N41  1  0.50081512  0.99766330  0.49949103  1
  N  N42  1  0.70485946  0.37095586  0.59295290  1
  N  N43  1  0.92826602  0.75108657  0.69186673  1
  N  N44  1  0.31202822  0.24665744  0.56273175  1
  N  N45  1  0.53595427  0.62292579  0.65018847  1
  N  N46  1  0.13748978  0.48635352  0.62137868  1
  N  N47  1  0.34861311  0.88786112  0.72149559  1
  N  N48  1  0.74452059  0.00055031  0.75272410  1
  N  N49  1  0.96390496  0.36223483  0.84076162  1
  N  N50  1  0.56540215  0.25160410  0.81230686  1
  N  N51  1  0.77572729  0.62688520  0.91323499  1
  N  N52  1  0.16117179  0.12774814  0.78361853  1
  N  N53  1  0.38151913  0.49110686  0.87381819  1
  N  N54  1  0.60230545  0.87360773  0.96495984  1
  N  N55  1  0.17446455  0.76474440  0.94169901  1
  Ti  Ti56  1  0.42456480  0.92997897  0.10302439  1
  Ti  Ti57  1  0.82152572  0.06730366  0.14775572  1
  Ti  Ti58  1  0.89314476  0.31782657  0.45463818  1
  Ti  Ti59  1  0.10434709  0.68425455  0.55509087  1
  Ti  Ti60  1  0.92573470  0.92899917  0.60633742  1
  Ti  Ti61  1  0.96309681  0.56277779  0.75924538  1
  Ti  Ti62  1  0.34886069  0.68724489  0.80247028  1
  Ti  Ti63  1  0.20567652  0.56929595  0.00681494  1
