# generated using pymatgen
data_TiAlN2
_symmetry_space_group_name_H-M   'P 1'
_cell_length_a   6.94060420
_cell_length_b   6.85226070
_cell_length_c   4.18978778
_cell_angle_alpha   89.99966833
_cell_angle_beta   90.00065490
_cell_angle_gamma   120.42741115
_symmetry_Int_Tables_number   1
_chemical_formula_structural   TiAlN2
_chemical_formula_sum   'Ti4 Al4 N8'
_cell_volume   171.81742347
_cell_formula_units_Z   4
loop_
 _symmetry_equiv_pos_site_id
 _symmetry_equiv_pos_as_xyz
  1  'x, y, z'
loop_
 _atom_site_type_symbol
 _atom_site_label
 _atom_site_symmetry_multiplicity
 _atom_site_fract_x
 _atom_site_fract_y
 _atom_site_fract_z
 _atom_site_occupancy
  Al  Al0  1  0.67155249  0.33308282  0.43982393  1
  Al  Al1  1  0.66468955  0.83475920  0.43952052  1
  Al  Al2  1  0.33847017  0.66691718  0.93982393  1
  Al  Al3  1  0.82993085  0.16524080  0.93952052  1
  N  N4  1  0.15354287  0.34059833  0.94003991  1
  N  N5  1  0.17512218  0.82005646  0.94028031  1
  N  N6  1  0.67597653  0.33053387  0.94010650  1
  N  N7  1  0.66091823  0.83991942  0.94001561  1
  N  N8  1  0.35506621  0.17994354  0.44028031  1
  N  N9  1  0.34544316  0.66946613  0.44010650  1
  N  N10  1  0.82099932  0.16008058  0.44001561  1
  N  N11  1  0.81294504  0.65940167  0.44003991  1
  Ti  Ti12  1  0.16739813  0.32853386  0.43998488  1
  Ti  Ti13  1  0.16313443  0.83718887  0.44022833  1
  Ti  Ti14  1  0.32594606  0.16281113  0.94022833  1
  Ti  Ti15  1  0.83886478  0.67146614  0.93998488  1
