# generated using pymatgen
data_TiAlN2
_symmetry_space_group_name_H-M   'P 1'
_cell_length_a   8.23953904
_cell_length_b   8.24456096
_cell_length_c   8.21493739
_cell_angle_alpha   134.03248334
_cell_angle_beta   102.09194711
_cell_angle_gamma   95.38906000
_symmetry_Int_Tables_number   1
_chemical_formula_structural   TiAlN2
_chemical_formula_sum   'Ti8 Al8 N16'
_cell_volume   368.83423002
_cell_formula_units_Z   8
loop_
 _symmetry_equiv_pos_site_id
 _symmetry_equiv_pos_as_xyz
  1  'x, y, z'
loop_
 _atom_site_type_symbol
 _atom_site_label
 _atom_site_symmetry_multiplicity
 _atom_site_fract_x
 _atom_site_fract_y
 _atom_site_fract_z
 _atom_site_occupancy
  Al  Al0  1  0.69062354  0.66707435  0.52223133  1
  Al  Al1  1  0.15589405  0.16642040  0.48908887  1
  Al  Al2  1  0.91164876  0.15572991  0.73944586  1
  Al  Al3  1  0.41582441  0.17909696  0.24843446  1
  Al  Al4  1  0.08994362  0.83655986  0.75744374  1
  Al  Al5  1  0.84534976  0.83809858  0.00841851  1
  Al  Al6  1  0.08411153  0.33032434  0.24760082  1
  Al  Al7  1  0.84073166  0.33654387  0.50902529  1
  N  N8  1  0.51024616  0.66518838  0.34478503  1
  N  N9  1  0.97299911  0.16951495  0.30656695  1
  N  N10  1  0.21737807  0.65750241  0.55209182  1
  N  N11  1  0.97319468  0.66864770  0.80434434  1
  N  N12  1  0.73242184  0.17215201  0.56480296  1
  N  N13  1  0.46800680  0.16143367  0.81314131  1
  N  N14  1  0.72579252  0.67573596  0.06059434  1
  N  N15  1  0.22292507  0.16697100  0.06113078  1
  N  N16  1  0.90120779  0.83800266  0.57276160  1
  N  N17  1  0.37828353  0.31996221  0.53792028  1
  N  N18  1  0.65963419  0.83456987  0.82034210  1
  N  N19  1  0.39341879  0.85869426  0.05800269  1
  N  N20  1  0.12363179  0.31079382  0.77856770  1
  N  N21  1  0.89847227  0.31913658  0.04988141  1
  N  N22  1  0.12452558  0.84359212  0.30639205  1
  N  N23  1  0.65008498  0.33768933  0.32762288  1
  Ti  Ti24  1  0.42011704  0.66823477  0.74687726  1
  Ti  Ti25  1  0.18401128  0.66453660  0.01186791  1
  Ti  Ti26  1  0.66484487  0.16649343  0.00231079  1
  Ti  Ti27  1  0.90576436  0.65928960  0.24292401  1
  Ti  Ti28  1  0.57114349  0.32512980  0.74242762  1
  Ti  Ti29  1  0.56206504  0.82371382  0.24695992  1
  Ti  Ti30  1  0.33172300  0.36213694  0.01474617  1
  Ti  Ti31  1  0.33398039  0.82102985  0.47124922  1
