# generated using pymatgen
data_TiAlN2
_symmetry_space_group_name_H-M   'P 1'
_cell_length_a   5.94407563
_cell_length_b   10.25515940
_cell_length_c   8.45854203
_cell_angle_alpha   90.03140691
_cell_angle_beta   89.37980956
_cell_angle_gamma   90.06499896
_symmetry_Int_Tables_number   1
_chemical_formula_structural   TiAlN2
_chemical_formula_sum   'Ti12 Al12 N24'
_cell_volume   515.58048244
_cell_formula_units_Z   12
loop_
 _symmetry_equiv_pos_site_id
 _symmetry_equiv_pos_as_xyz
  1  'x, y, z'
loop_
 _atom_site_type_symbol
 _atom_site_label
 _atom_site_symmetry_multiplicity
 _atom_site_fract_x
 _atom_site_fract_y
 _atom_site_fract_z
 _atom_site_occupancy
  Al  Al0  1  0.66364428  0.66619586  0.27453161  1
  Al  Al1  1  0.66928320  0.33679316  0.27966108  1
  Al  Al2  1  0.16201836  0.83034723  0.27470279  1
  Al  Al3  1  0.17046088  0.50029306  0.78206893  1
  Al  Al4  1  0.17025254  0.16665116  0.78172297  1
  Al  Al5  1  0.16575579  0.83327133  0.78408959  1
  Al  Al6  1  0.33831606  0.33408908  0.53285452  1
  Al  Al7  1  0.33324866  0.66957845  0.02846556  1
  Al  Al8  1  0.83280256  0.50363688  0.03031231  1
  Al  Al9  1  0.83244859  0.16369155  0.03052271  1
  Al  Al10  1  0.33296200  0.99693594  0.02891683  1
  Al  Al11  1  0.83118737  0.83268673  0.02997850  1
  N  N12  1  0.66221589  0.66720635  0.03208818  1
  N  N13  1  0.16334951  0.50531536  0.02644996  1
  N  N14  1  0.67506173  0.33378213  0.03484678  1
  N  N15  1  0.16368520  0.16203271  0.02634413  1
  N  N16  1  0.66398218  0.99884640  0.02956862  1
  N  N17  1  0.16430058  0.83291715  0.02953911  1
  N  N18  1  0.66116618  0.66149007  0.51471166  1
  N  N19  1  0.17978679  0.49183387  0.54146583  1
  N  N20  1  0.65703521  0.33406686  0.52214704  1
  N  N21  1  0.17969513  0.17641031  0.54123320  1
  N  N22  1  0.65976846  0.00326863  0.52909529  1
  N  N23  1  0.16212349  0.83185399  0.53143476  1
  N  N24  1  0.33596303  0.67256238  0.27172479  1
  N  N25  1  0.82269902  0.50145352  0.26957028  1
  N  N26  1  0.34424640  0.33509048  0.28723602  1
  N  N27  1  0.82802980  0.17429877  0.26977826  1
  N  N28  1  0.32462910  0.99208407  0.27240692  1
  N  N29  1  0.83899987  0.82533885  0.27106064  1
  N  N30  1  0.32234861  0.66799831  0.78672896  1
  N  N31  1  0.84732278  0.49982178  0.78977655  1
  N  N32  1  0.32923390  0.33398031  0.78119635  1
  N  N33  1  0.84687212  0.16717550  0.78831547  1
  N  N34  1  0.31961534  0.99880511  0.78732203  1
  N  N35  1  0.84488646  0.83241355  0.78782030  1
  Ti  Ti36  1  0.16427994  0.50160195  0.28514613  1
  Ti  Ti37  1  0.16538864  0.16606792  0.28591818  1
  Ti  Ti38  1  0.66666133  0.99894026  0.28938954  1
  Ti  Ti39  1  0.66959993  0.66645727  0.76861949  1
  Ti  Ti40  1  0.67286429  0.33357704  0.77590973  1
  Ti  Ti41  1  0.66801816  0.99918374  0.76917930  1
  Ti  Ti42  1  0.33180716  0.66645192  0.53124471  1
  Ti  Ti43  1  0.83716048  0.50020113  0.53266254  1
  Ti  Ti44  1  0.83750692  0.16659983  0.52823900  1
  Ti  Ti45  1  0.32772945  0.99998749  0.52843687  1
  Ti  Ti46  1  0.82576164  0.83308852  0.53027212  1
  Ti  Ti47  1  0.33382498  0.33362607  0.03529388  1
