# generated using pymatgen
data_Ti3AlN4
_symmetry_space_group_name_H-M   'P 1'
_cell_length_a   8.14007856
_cell_length_b   8.13146705
_cell_length_c   6.01406155
_cell_angle_alpha   89.97533074
_cell_angle_beta   90.12276786
_cell_angle_gamma   117.31134529
_symmetry_Int_Tables_number   1
_chemical_formula_structural   Ti3AlN4
_chemical_formula_sum   'Ti12 Al4 N16'
_cell_volume   353.69964582
_cell_formula_units_Z   4
loop_
 _symmetry_equiv_pos_site_id
 _symmetry_equiv_pos_as_xyz
  1  'x, y, z'
loop_
 _atom_site_type_symbol
 _atom_site_label
 _atom_site_symmetry_multiplicity
 _atom_site_fract_x
 _atom_site_fract_y
 _atom_site_fract_z
 _atom_site_occupancy
  Ti  Ti0  1  0.97037987  0.47217781  0.32883886  1
  Ti  Ti1  1  0.21525899  0.21283378  0.33274629  1
  Ti  Ti2  1  0.08954741  0.34206501  0.83098617  1
  Ti  Ti3  1  0.47245537  0.96764015  0.33611216  1
  Ti  Ti4  1  0.34325155  0.08919361  0.83095009  1
  Ti  Ti5  1  0.84695150  0.60207354  0.83575910  1
  Ti  Ti6  1  0.84993566  0.10312418  0.16898813  1
  Ti  Ti7  1  0.72185501  0.22501149  0.66512008  1
  Ti  Ti8  1  0.09983619  0.84570674  0.16960903  1
  Ti  Ti9  1  0.97534706  0.97639840  0.66663356  1
  Ti  Ti10  1  0.21676947  0.71464522  0.66335207  1
  Ti  Ti11  1  0.46203127  0.46273416  0.66748104  1
  N  N12  1  0.23067905  0.71181365  0.32137507  1
  N  N13  1  0.47450161  0.47490956  0.32264907  1
  N  N14  1  0.35220899  0.59808288  0.84502540  1
  N  N15  1  0.71263955  0.22837563  0.32261571  1
  N  N16  1  0.59373426  0.34806156  0.84553247  1
  N  N17  1  0.96258564  0.96317315  0.33221823  1
  N  N18  1  0.83514101  0.09030230  0.83889804  1
  N  N19  1  0.09681769  0.84291016  0.83698152  1
  N  N20  1  0.83171996  0.59792720  0.17472377  1
  N  N21  1  0.10439494  0.35162470  0.16580363  1
  N  N22  1  0.96668917  0.47344185  0.66351928  1
  N  N23  1  0.35447911  0.10009750  0.16737191  1
  N  N24  1  0.21808958  0.21848629  0.66728077  1
  N  N25  1  0.59640869  0.83613202  0.16156005  1
  N  N26  1  0.47772370  0.96113265  0.67333654  1
  N  N27  1  0.71193174  0.72410766  0.65937202  1
  Al  Al28  1  0.71656351  0.72149523  0.33509813  1
  Al  Al29  1  0.59680526  0.84180361  0.83755909  1
  Al  Al30  1  0.59297352  0.35087050  0.16790818  1
  Al  Al31  1  0.35029368  0.59164780  0.16459452  1
