# generated using pymatgen
data_TiAl3N4
_symmetry_space_group_name_H-M   'P 1'
_cell_length_a   8.14121311
_cell_length_b   8.17107227
_cell_length_c   5.48741706
_cell_angle_alpha   90.62170697
_cell_angle_beta   90.13506996
_cell_angle_gamma   103.23010235
_symmetry_Int_Tables_number   1
_chemical_formula_structural   TiAl3N4
_chemical_formula_sum   'Ti4 Al12 N16'
_cell_volume   355.32255844
_cell_formula_units_Z   4
loop_
 _symmetry_equiv_pos_site_id
 _symmetry_equiv_pos_as_xyz
  1  'x, y, z'
loop_
 _atom_site_type_symbol
 _atom_site_label
 _atom_site_symmetry_multiplicity
 _atom_site_fract_x
 _atom_site_fract_y
 _atom_site_fract_z
 _atom_site_occupancy
  Al  Al0  1  0.01010407  0.49817597  0.33774101  1
  Al  Al1  1  0.23613010  0.23771005  0.33987992  1
  Al  Al2  1  0.12551609  0.37248810  0.83694040  1
  Al  Al3  1  0.49576753  0.01381726  0.33165515  1
  Al  Al4  1  0.36725689  0.12561745  0.83657241  1
  Al  Al5  1  0.88723945  0.62035789  0.83448818  1
  Al  Al6  1  0.87351580  0.12441850  0.16906354  1
  Al  Al7  1  0.75407108  0.25280972  0.66639710  1
  Al  Al8  1  0.12283630  0.87351680  0.16761777  1
  Al  Al9  1  0.99921475  0.99690741  0.66615658  1
  Al  Al10  1  0.24925223  0.75205106  0.66529865  1
  Al  Al11  1  0.49834537  0.49578321  0.66982452  1
  N  N12  1  0.19023900  0.69571926  0.33854480  1
  N  N13  1  0.42416866  0.41948475  0.35334556  1
  N  N14  1  0.31638256  0.56675121  0.82391279  1
  N  N15  1  0.69470969  0.19401183  0.33914111  1
  N  N16  1  0.56298573  0.31069048  0.82605408  1
  N  N17  1  0.94513392  0.94788207  0.33011303  1
  N  N18  1  0.81886715  0.07006080  0.83086756  1
  N  N19  1  0.06739602  0.81632836  0.83311737  1
  N  N20  1  0.83669968  0.56313174  0.16400637  1
  N  N21  1  0.06617877  0.31475485  0.16713810  1
  N  N22  1  0.94754253  0.43792731  0.66713046  1
  N  N23  1  0.31070272  0.06706850  0.16494026  1
  N  N24  1  0.18526496  0.18793373  0.67409308  1
  N  N25  1  0.55957307  0.84217346  0.15243062  1
  N  N26  1  0.42919956  0.95029393  0.65703302  1
  N  N27  1  0.69936753  0.66832358  0.67736232  1
  Ti  Ti28  1  0.73300442  0.73891944  0.33062695  1
  Ti  Ti29  1  0.62085455  0.87437739  0.81092152  1
  Ti  Ti30  1  0.62190400  0.38718310  0.16385519  1
  Ti  Ti31  1  0.39057582  0.62333079  0.17373053  1
