# generated using pymatgen
data_TiAlN2
_symmetry_space_group_name_H-M   'P 1'
_cell_length_a   10.27849484
_cell_length_b   10.24075554
_cell_length_c   8.44919254
_cell_angle_alpha   90.21590238
_cell_angle_beta   89.62360339
_cell_angle_gamma   119.70075107
_symmetry_Int_Tables_number   1
_chemical_formula_structural   TiAlN2
_chemical_formula_sum   'Ti18 Al18 N36'
_cell_volume   772.50200550
_cell_formula_units_Z   18
loop_
 _symmetry_equiv_pos_site_id
 _symmetry_equiv_pos_as_xyz
  1  'x, y, z'
loop_
 _atom_site_type_symbol
 _atom_site_label
 _atom_site_symmetry_multiplicity
 _atom_site_fract_x
 _atom_site_fract_y
 _atom_site_fract_z
 _atom_site_occupancy
  Ti  Ti0  1  0.11230688  0.22461755  0.22281893  1
  Ti  Ti1  1  0.10590324  0.21787602  0.72149562  1
  Ti  Ti2  1  0.11118359  0.55338944  0.22515158  1
  Ti  Ti3  1  0.21857485  0.44205845  0.96594640  1
  Ti  Ti4  1  0.10826405  0.55365460  0.71774688  1
  Ti  Ti5  1  0.22059292  0.44337056  0.47445053  1
  Ti  Ti6  1  0.11063913  0.88655798  0.22557363  1
  Ti  Ti7  1  0.45562597  0.22878193  0.22283824  1
  Ti  Ti8  1  0.55392978  0.11243092  0.97769960  1
  Ti  Ti9  1  0.55809391  0.11901011  0.46201888  1
  Ti  Ti10  1  0.55673341  0.44462352  0.96668995  1
  Ti  Ti11  1  0.44966653  0.55676487  0.72225501  1
  Ti  Ti12  1  0.55510783  0.44272615  0.47209310  1
  Ti  Ti13  1  0.55627527  0.77504191  0.96073057  1
  Ti  Ti14  1  0.77287418  0.55653723  0.71477407  1
  Ti  Ti15  1  0.88936631  0.44513374  0.47143986  1
  Ti  Ti16  1  0.76991059  0.87639771  0.71918968  1
  Ti  Ti17  1  0.88961076  0.77935268  0.47599801  1
  Al  Al18  1  0.21803115  0.10592677  0.97118156  1
  Al  Al19  1  0.21855416  0.10712259  0.47374615  1
  Al  Al20  1  0.22077269  0.77928758  0.96850089  1
  Al  Al21  1  0.11859917  0.89228621  0.72250932  1
  Al  Al22  1  0.22891109  0.78492714  0.47381237  1
  Al  Al23  1  0.43921001  0.21338614  0.71987730  1
  Al  Al24  1  0.45100530  0.56302617  0.22352121  1
  Al  Al25  1  0.44792495  0.88700693  0.22056266  1
  Al  Al26  1  0.44329070  0.89623117  0.71782801  1
  Al  Al27  1  0.55393439  0.78224789  0.46956444  1
  Al  Al28  1  0.78102805  0.22241300  0.21925618  1
  Al  Al29  1  0.88575736  0.10743892  0.97147508  1
  Al  Al30  1  0.77415638  0.21866942  0.72146090  1
  Al  Al31  1  0.88439645  0.10480967  0.46912738  1
  Al  Al32  1  0.77937691  0.55891976  0.21651556  1
  Al  Al33  1  0.88799137  0.44551002  0.97089288  1
  Al  Al34  1  0.77431606  0.88796523  0.21891789  1
  Al  Al35  1  0.89437492  0.78051148  0.96854545  1
  N  N36  1  0.09803054  0.20063098  0.47195272  1
  N  N37  1  0.22473938  0.11095578  0.22105843  1
  N  N38  1  0.10160733  0.20754024  0.97251168  1
  N  N39  1  0.22431783  0.10649538  0.72546552  1
  N  N40  1  0.11896407  0.57082337  0.47174354  1
  N  N41  1  0.23371775  0.45033000  0.22006559  1
  N  N42  1  0.10482930  0.56313683  0.97168527  1
  N  N43  1  0.22157970  0.44088827  0.71997107  1
  N  N44  1  0.12238897  0.89415215  0.47758322  1
  N  N45  1  0.23228878  0.78363520  0.21994383  1
  N  N46  1  0.11343368  0.88958682  0.97126049  1
  N  N47  1  0.23016546  0.78964492  0.72229947  1
  N  N48  1  0.42728795  0.21137950  0.47912440  1
  N  N49  1  0.56559690  0.10476340  0.21952888  1
  N  N50  1  0.43230279  0.21402414  0.96497595  1
  N  N51  1  0.55662619  0.11211351  0.72046629  1
  N  N52  1  0.44804559  0.56677582  0.46297176  1
  N  N53  1  0.56481319  0.45984289  0.21877040  1
  N  N54  1  0.44346695  0.55555553  0.97991502  1
  N  N55  1  0.54842398  0.42575516  0.71953538  1
  N  N56  1  0.44163299  0.88760524  0.46537146  1
  N  N57  1  0.55724848  0.78066461  0.22176371  1
  N  N58  1  0.43633085  0.88568562  0.97094537  1
  N  N59  1  0.54705805  0.78884300  0.70969355  1
  N  N60  1  0.78390429  0.21641575  0.47276555  1
  N  N61  1  0.88030045  0.10704123  0.21883870  1
  N  N62  1  0.78524064  0.22568925  0.96898533  1
  N  N63  1  0.87904889  0.10736999  0.72325872  1
  N  N64  1  0.78174250  0.56190326  0.45940868  1
  N  N65  1  0.87771750  0.43759444  0.21342591  1
  N  N66  1  0.78960454  0.56319473  0.97499313  1
  N  N67  1  0.88280286  0.43479852  0.72661840  1
  N  N68  1  0.77081157  0.89133240  0.46282676  1
  N  N69  1  0.88397402  0.77811353  0.21484510  1
  N  N70  1  0.78546058  0.89177168  0.97634225  1
  N  N71  1  0.90820510  0.78793535  0.72888274  1
