# generated using pymatgen
data_TiAlN2
_symmetry_space_group_name_H-M   'P 1'
_cell_length_a   10.26131859
_cell_length_b   10.26909933
_cell_length_c   8.43630676
_cell_angle_alpha   89.97134906
_cell_angle_beta   90.05847211
_cell_angle_gamma   119.62497293
_symmetry_Int_Tables_number   1
_chemical_formula_structural   TiAlN2
_chemical_formula_sum   'Ti18 Al18 N36'
_cell_volume   772.76444159
_cell_formula_units_Z   18
loop_
 _symmetry_equiv_pos_site_id
 _symmetry_equiv_pos_as_xyz
  1  'x, y, z'
loop_
 _atom_site_type_symbol
 _atom_site_label
 _atom_site_symmetry_multiplicity
 _atom_site_fract_x
 _atom_site_fract_y
 _atom_site_fract_z
 _atom_site_occupancy
  Ti  Ti0  1  0.11075562  0.21987369  0.21428757  1
  Ti  Ti1  1  0.11270280  0.55528395  0.21168468  1
  Ti  Ti2  1  0.22390962  0.44528534  0.97755767  1
  Ti  Ti3  1  0.44210963  0.22120061  0.22499410  1
  Ti  Ti4  1  0.44853084  0.22277927  0.71482464  1
  Ti  Ti5  1  0.55620683  0.11234305  0.47124775  1
  Ti  Ti6  1  0.44334535  0.55695451  0.21665902  1
  Ti  Ti7  1  0.54965160  0.44129484  0.97147638  1
  Ti  Ti8  1  0.44121332  0.55675211  0.72501868  1
  Ti  Ti9  1  0.55747702  0.44374594  0.47221693  1
  Ti  Ti10  1  0.44346904  0.88775690  0.22824937  1
  Ti  Ti11  1  0.44437641  0.88727955  0.71249391  1
  Ti  Ti12  1  0.77915593  0.22382257  0.22149854  1
  Ti  Ti13  1  0.77707001  0.22807105  0.71729409  1
  Ti  Ti14  1  0.77975600  0.55871149  0.21409132  1
  Ti  Ti15  1  0.88822151  0.44155346  0.97436895  1
  Ti  Ti16  1  0.77766540  0.55329527  0.72727054  1
  Ti  Ti17  1  0.88708073  0.77715870  0.96944217  1
  Al  Al18  1  0.21918213  0.10497385  0.96476448  1
  Al  Al19  1  0.10806208  0.21844513  0.72163725  1
  Al  Al20  1  0.21198609  0.10471193  0.47520289  1
  Al  Al21  1  0.11508284  0.55805206  0.71977006  1
  Al  Al22  1  0.21898952  0.44305319  0.47372679  1
  Al  Al23  1  0.10863070  0.88880852  0.22099467  1
  Al  Al24  1  0.22519207  0.78235253  0.96862888  1
  Al  Al25  1  0.10956869  0.88859647  0.71908795  1
  Al  Al26  1  0.21595683  0.77382673  0.47034830  1
  Al  Al27  1  0.55239202  0.10517197  0.97043177  1
  Al  Al28  1  0.56047167  0.78771293  0.97277447  1
  Al  Al29  1  0.56027195  0.77865835  0.46972001  1
  Al  Al30  1  0.88643555  0.10667620  0.96576161  1
  Al  Al31  1  0.89276171  0.11067324  0.47413472  1
  Al  Al32  1  0.89621958  0.45049694  0.47259699  1
  Al  Al33  1  0.78244728  0.89165814  0.22416362  1
  Al  Al34  1  0.78321594  0.89300712  0.71749580  1
  Al  Al35  1  0.89295049  0.78226615  0.47145605  1
  N  N36  1  0.10955892  0.22015995  0.47497640  1
  N  N37  1  0.21289282  0.09940692  0.21936205  1
  N  N38  1  0.10309130  0.20772850  0.96392234  1
  N  N39  1  0.21203180  0.10410968  0.71977417  1
  N  N40  1  0.11460309  0.55846434  0.47480926  1
  N  N41  1  0.21985266  0.43899476  0.23261068  1
  N  N42  1  0.11889410  0.56736908  0.96097603  1
  N  N43  1  0.21091282  0.43589529  0.71507007  1
  N  N44  1  0.11104762  0.88825999  0.47133231  1
  N  N45  1  0.21583020  0.78327392  0.22001189  1
  N  N46  1  0.11599445  0.88924870  0.96827748  1
  N  N47  1  0.21445443  0.77563829  0.71868805  1
  N  N48  1  0.42539110  0.21389896  0.47018054  1
  N  N49  1  0.55517268  0.10832823  0.21257078  1
  N  N50  1  0.43346944  0.20419813  0.96947236  1
  N  N51  1  0.55373063  0.10327096  0.72858449  1
  N  N52  1  0.44063662  0.56260608  0.47265609  1
  N  N53  1  0.55671362  0.44536777  0.22273490  1
  N  N54  1  0.45023085  0.57519788  0.97103579  1
  N  N55  1  0.54921367  0.44620672  0.72111093  1
  N  N56  1  0.43621840  0.87508901  0.47044240  1
  N  N57  1  0.57091914  0.78865116  0.22305783  1
  N  N58  1  0.44234963  0.88647053  0.97018293  1
  N  N59  1  0.56921374  0.78711435  0.71816387  1
  N  N60  1  0.79434514  0.22881678  0.47094140  1
  N  N61  1  0.88743571  0.10274710  0.22053994  1
  N  N62  1  0.77112668  0.20692272  0.96937306  1
  N  N63  1  0.89200148  0.10727347  0.71959947  1
  N  N64  1  0.79276294  0.56738919  0.47111278  1
  N  N65  1  0.89224969  0.44768663  0.23056081  1
  N  N66  1  0.77741221  0.55688042  0.97084241  1
  N  N67  1  0.90287758  0.45124063  0.71380045  1
  N  N68  1  0.77989661  0.89127292  0.47153289  1
  N  N69  1  0.89628053  0.79195629  0.22482016  1
  N  N70  1  0.77408429  0.89222597  0.96932263  1
  N  N71  1  0.89458867  0.78833491  0.71617776  1
