# generated using pymatgen
data_TiAlN2
_symmetry_space_group_name_H-M   'P 1'
_cell_length_a   10.26752578
_cell_length_b   10.23181168
_cell_length_c   8.45560684
_cell_angle_alpha   89.91180638
_cell_angle_beta   90.32415446
_cell_angle_gamma   119.67119349
_symmetry_Int_Tables_number   1
_chemical_formula_structural   TiAlN2
_chemical_formula_sum   'Ti18 Al18 N36'
_cell_volume   771.81953626
_cell_formula_units_Z   18
loop_
 _symmetry_equiv_pos_site_id
 _symmetry_equiv_pos_as_xyz
  1  'x, y, z'
loop_
 _atom_site_type_symbol
 _atom_site_label
 _atom_site_symmetry_multiplicity
 _atom_site_fract_x
 _atom_site_fract_y
 _atom_site_fract_z
 _atom_site_occupancy
  Al  Al0  1  0.10274115  0.21211280  0.22270638  1
  Al  Al1  1  0.21978927  0.10897430  0.47136681  1
  Al  Al2  1  0.10554292  0.89148413  0.22025600  1
  Al  Al3  1  0.11168372  0.89087644  0.72159878  1
  Al  Al4  1  0.22320635  0.78646132  0.47088370  1
  Al  Al5  1  0.44554234  0.21964643  0.72129149  1
  Al  Al6  1  0.56302276  0.45173024  0.96968092  1
  Al  Al7  1  0.54713600  0.43557009  0.46871983  1
  Al  Al8  1  0.56522460  0.78042615  0.97054837  1
  Al  Al9  1  0.44796778  0.89318326  0.72218235  1
  Al  Al10  1  0.78487973  0.22066925  0.21857231  1
  Al  Al11  1  0.88534507  0.10794005  0.96985986  1
  Al  Al12  1  0.77232109  0.21567790  0.72400666  1
  Al  Al13  1  0.88888564  0.10901503  0.47309872  1
  Al  Al14  1  0.88425249  0.44123204  0.97082927  1
  Al  Al15  1  0.78454354  0.89415020  0.21852564  1
  Al  Al16  1  0.88458352  0.77680161  0.96849362  1
  Al  Al17  1  0.77925392  0.89213041  0.72136114  1
  Ti  Ti18  1  0.22593586  0.10916107  0.97269125  1
  Ti  Ti19  1  0.11205258  0.22385797  0.72364669  1
  Ti  Ti20  1  0.11858437  0.55928599  0.22141171  1
  Ti  Ti21  1  0.22150834  0.44486329  0.96796663  1
  Ti  Ti22  1  0.10869123  0.55968217  0.71816055  1
  Ti  Ti23  1  0.22029766  0.44311051  0.47276986  1
  Ti  Ti24  1  0.22606512  0.78396950  0.97591489  1
  Ti  Ti25  1  0.44196361  0.21472797  0.21480896  1
  Ti  Ti26  1  0.54719071  0.10658151  0.98029845  1
  Ti  Ti27  1  0.55499921  0.11097283  0.46107732  1
  Ti  Ti28  1  0.43889079  0.55870020  0.22109095  1
  Ti  Ti29  1  0.44741322  0.55889999  0.71775242  1
  Ti  Ti30  1  0.44267913  0.88537184  0.21808717  1
  Ti  Ti31  1  0.55244359  0.77503345  0.46476911  1
  Ti  Ti32  1  0.77933223  0.55519497  0.22966850  1
  Ti  Ti33  1  0.78085352  0.55545519  0.70975826  1
  Ti  Ti34  1  0.89231158  0.44851863  0.47069425  1
  Ti  Ti35  1  0.88746169  0.77276103  0.47322074  1
  N  N36  1  0.10246972  0.20720973  0.46967422  1
  N  N37  1  0.21129063  0.10503656  0.22660901  1
  N  N38  1  0.10135458  0.21253321  0.97583940  1
  N  N39  1  0.22730984  0.10877286  0.71827826  1
  N  N40  1  0.11975131  0.57244089  0.47003843  1
  N  N41  1  0.21037085  0.42399203  0.22144481  1
  N  N42  1  0.10300672  0.55667337  0.96961119  1
  N  N43  1  0.22413862  0.44863970  0.72003337  1
  N  N44  1  0.11457186  0.89320503  0.47484445  1
  N  N45  1  0.21526820  0.79037252  0.22832243  1
  N  N46  1  0.09810295  0.88390933  0.97048876  1
  N  N47  1  0.23064449  0.79308637  0.71810972  1
  N  N48  1  0.43591064  0.22139393  0.47509016  1
  N  N49  1  0.57004343  0.11454156  0.22133072  1
  N  N50  1  0.45357319  0.24013910  0.96153063  1
  N  N51  1  0.55630395  0.11145637  0.72007231  1
  N  N52  1  0.44588794  0.54831640  0.46906316  1
  N  N53  1  0.55350929  0.44179731  0.21952998  1
  N  N54  1  0.45940984  0.56381469  0.96852774  1
  N  N55  1  0.55335567  0.43681645  0.71620992  1
  N  N56  1  0.43772938  0.88705476  0.47721509  1
  N  N57  1  0.57429340  0.78830067  0.21237696  1
  N  N58  1  0.45175561  0.87994357  0.96193295  1
  N  N59  1  0.56383550  0.78934698  0.72157681  1
  N  N60  1  0.78307939  0.21839316  0.47168885  1
  N  N61  1  0.88833209  0.10856324  0.22120250  1
  N  N62  1  0.78270600  0.22238135  0.97273433  1
  N  N63  1  0.88171753  0.10817216  0.72159857  1
  N  N64  1  0.75990575  0.54356118  0.46917102  1
  N  N65  1  0.88805907  0.43610205  0.21378117  1
  N  N66  1  0.77862836  0.55764364  0.96958625  1
  N  N67  1  0.87995496  0.42972404  0.72890078  1
  N  N68  1  0.78114864  0.89330735  0.47152551  1
  N  N69  1  0.89252686  0.78715463  0.21575883  1
  N  N70  1  0.78049019  0.89108611  0.96803148  1
  N  N71  1  0.89496722  0.79088791  0.72650067  1
