# generated using pymatgen
data_Ti3AlN4
_symmetry_space_group_name_H-M   'P 1'
_cell_length_a   10.42236787
_cell_length_b   10.40578415
_cell_length_c   8.46910394
_cell_angle_alpha   89.75822600
_cell_angle_beta   90.09623697
_cell_angle_gamma   119.98163838
_symmetry_Int_Tables_number   1
_chemical_formula_structural   Ti3AlN4
_chemical_formula_sum   'Ti27 Al9 N36'
_cell_volume   795.58339613
_cell_formula_units_Z   9
loop_
 _symmetry_equiv_pos_site_id
 _symmetry_equiv_pos_as_xyz
  1  'x, y, z'
loop_
 _atom_site_type_symbol
 _atom_site_label
 _atom_site_symmetry_multiplicity
 _atom_site_fract_x
 _atom_site_fract_y
 _atom_site_fract_z
 _atom_site_occupancy
  Al  Al0  1  0.11291690  0.22275714  0.22229965  1
  Al  Al1  1  0.22774951  0.11335190  0.46936351  1
  Al  Al2  1  0.21572467  0.44040361  0.97051274  1
  Al  Al3  1  0.11204608  0.55898350  0.72036387  1
  Al  Al4  1  0.11391927  0.88795737  0.71698040  1
  Al  Al5  1  0.55079284  0.11421474  0.47032851  1
  Al  Al6  1  0.55230426  0.43715927  0.46980050  1
  Al  Al7  1  0.89726635  0.11717814  0.97355387  1
  Al  Al8  1  0.77326665  0.55393274  0.22154963  1
  Ti  Ti9  1  0.22137735  0.11112428  0.96951166  1
  Ti  Ti10  1  0.11382077  0.22376108  0.71566539  1
  Ti  Ti11  1  0.10876963  0.55353751  0.22760792  1
  Ti  Ti12  1  0.22312758  0.44455513  0.47124817  1
  Ti  Ti13  1  0.10995387  0.88826531  0.21815451  1
  Ti  Ti14  1  0.22192840  0.77704860  0.97731891  1
  Ti  Ti15  1  0.22413324  0.77938162  0.46358567  1
  Ti  Ti16  1  0.44293361  0.22148848  0.20929516  1
  Ti  Ti17  1  0.55790780  0.11103693  0.97087729  1
  Ti  Ti18  1  0.44333855  0.22201175  0.72977844  1
  Ti  Ti19  1  0.44113113  0.55356044  0.21945043  1
  Ti  Ti20  1  0.55464903  0.44660522  0.96523171  1
  Ti  Ti21  1  0.44267846  0.55325113  0.72124259  1
  Ti  Ti22  1  0.44501459  0.88779888  0.21786138  1
  Ti  Ti23  1  0.56031861  0.77570347  0.96996803  1
  Ti  Ti24  1  0.44298786  0.88700915  0.72338152  1
  Ti  Ti25  1  0.55209533  0.77531257  0.46915966  1
  Ti  Ti26  1  0.77926020  0.22264442  0.22292319  1
  Ti  Ti27  1  0.77857449  0.22443882  0.72073778  1
  Ti  Ti28  1  0.88970341  0.11509131  0.47281281  1
  Ti  Ti29  1  0.88840284  0.44283058  0.97090185  1
  Ti  Ti30  1  0.77988851  0.55783866  0.72426286  1
  Ti  Ti31  1  0.88599362  0.44322363  0.47147971  1
  Ti  Ti32  1  0.78055034  0.89184030  0.22350522  1
  Ti  Ti33  1  0.88645899  0.77861561  0.96998568  1
  Ti  Ti34  1  0.77975538  0.88819809  0.71833964  1
  Ti  Ti35  1  0.89017045  0.77643583  0.47010554  1
  N  N36  1  0.11997353  0.21882788  0.46515625  1
  N  N37  1  0.21745199  0.11574429  0.22429890  1
  N  N38  1  0.11005378  0.22732750  0.97373716  1
  N  N39  1  0.21733504  0.10069464  0.71398984  1
  N  N40  1  0.11138851  0.55572779  0.47866204  1
  N  N41  1  0.21506280  0.43369974  0.21577042  1
  N  N42  1  0.11307555  0.54987691  0.96785432  1
  N  N43  1  0.21365111  0.44839143  0.72527929  1
  N  N44  1  0.11876928  0.90042036  0.47372801  1
  N  N45  1  0.21824277  0.77487929  0.22066347  1
  N  N46  1  0.11005470  0.89025528  0.96310772  1
  N  N47  1  0.21272133  0.77286874  0.72071876  1
  N  N48  1  0.44296092  0.22146251  0.46918611  1
  N  N49  1  0.55786237  0.11601749  0.22572935  1
  N  N50  1  0.44226174  0.22221663  0.96961074  1
  N  N51  1  0.55304910  0.10983944  0.71544088  1
  N  N52  1  0.44710584  0.54487499  0.46975317  1
  N  N53  1  0.56008643  0.44621999  0.22414341  1
  N  N54  1  0.42723469  0.54654036  0.97012127  1
  N  N55  1  0.55673241  0.44384216  0.71298837  1
  N  N56  1  0.44886035  0.90213449  0.47049360  1
  N  N57  1  0.55949340  0.77474804  0.21989491  1
  N  N58  1  0.44636119  0.88565202  0.97003133  1
  N  N59  1  0.55389195  0.77622267  0.71901183  1
  N  N60  1  0.76361792  0.21729515  0.47217467  1
  N  N61  1  0.90319932  0.11987543  0.21690250  1
  N  N62  1  0.78632500  0.21816054  0.97235058  1
  N  N63  1  0.89510374  0.11565846  0.72727161  1
  N  N64  1  0.76454524  0.54800424  0.46519649  1
  N  N65  1  0.88197416  0.44846686  0.22137909  1
  N  N66  1  0.77672879  0.55491043  0.97898431  1
  N  N67  1  0.89951526  0.45238709  0.72150722  1
  N  N68  1  0.77978891  0.89116157  0.47095300  1
  N  N69  1  0.88346905  0.76817066  0.22037306  1
  N  N70  1  0.78897173  0.90652417  0.97113780  1
  N  N71  1  0.90216951  0.78235350  0.71925313  1
