# generated using pymatgen
data_Ti3AlN4
_symmetry_space_group_name_H-M   'P 1'
_cell_length_a   10.44558125
_cell_length_b   10.43097224
_cell_length_c   8.44981136
_cell_angle_alpha   89.95873267
_cell_angle_beta   90.03241251
_cell_angle_gamma   120.15190400
_symmetry_Int_Tables_number   1
_chemical_formula_structural   Ti3AlN4
_chemical_formula_sum   'Ti27 Al9 N36'
_cell_volume   796.10090241
_cell_formula_units_Z   9
loop_
 _symmetry_equiv_pos_site_id
 _symmetry_equiv_pos_as_xyz
  1  'x, y, z'
loop_
 _atom_site_type_symbol
 _atom_site_label
 _atom_site_symmetry_multiplicity
 _atom_site_fract_x
 _atom_site_fract_y
 _atom_site_fract_z
 _atom_site_occupancy
  Ti  Ti0  1  0.10999098  0.22089692  0.22369326  1
  Ti  Ti1  1  0.11040276  0.22042093  0.71718963  1
  Ti  Ti2  1  0.21985462  0.11058623  0.46978922  1
  Ti  Ti3  1  0.11038946  0.55252059  0.21779575  1
  Ti  Ti4  1  0.22094225  0.44187703  0.97166407  1
  Ti  Ti5  1  0.11176485  0.55505083  0.72240083  1
  Ti  Ti6  1  0.22362388  0.44267222  0.46982693  1
  Ti  Ti7  1  0.10985248  0.89019892  0.22541180  1
  Ti  Ti8  1  0.21931928  0.77761246  0.97024684  1
  Ti  Ti9  1  0.10947323  0.88870430  0.71585619  1
  Ti  Ti10  1  0.22349526  0.77748557  0.46963400  1
  Ti  Ti11  1  0.55590486  0.11274569  0.97064876  1
  Ti  Ti12  1  0.55548072  0.10866789  0.46956301  1
  Ti  Ti13  1  0.44815705  0.55801445  0.22026224  1
  Ti  Ti14  1  0.55688553  0.44453129  0.96690852  1
  Ti  Ti15  1  0.44701978  0.55796377  0.72115136  1
  Ti  Ti16  1  0.55479066  0.44601417  0.47479346  1
  Ti  Ti17  1  0.44431793  0.88918667  0.21852144  1
  Ti  Ti18  1  0.55369569  0.77853403  0.97003645  1
  Ti  Ti19  1  0.44467580  0.88943806  0.72195198  1
  Ti  Ti20  1  0.77949016  0.22443337  0.21344969  1
  Ti  Ti21  1  0.89121942  0.11259714  0.97225849  1
  Ti  Ti22  1  0.77714671  0.22112477  0.72641364  1
  Ti  Ti23  1  0.89014785  0.44408796  0.96804718  1
  Ti  Ti24  1  0.77741678  0.55524708  0.72486435  1
  Ti  Ti25  1  0.89005970  0.77870605  0.96714130  1
  Ti  Ti26  1  0.88578687  0.77445488  0.47463539  1
  Al  Al27  1  0.22509328  0.11252955  0.97096474  1
  Al  Al28  1  0.44579825  0.22580772  0.22107638  1
  Al  Al29  1  0.44181650  0.22084840  0.71983115  1
  Al  Al30  1  0.56373792  0.78401488  0.47069371  1
  Al  Al31  1  0.88256332  0.10737339  0.46891883  1
  Al  Al32  1  0.77556266  0.55478311  0.22166212  1
  Al  Al33  1  0.88754505  0.44108846  0.46863793  1
  Al  Al34  1  0.77810654  0.88652611  0.22335754  1
  Al  Al35  1  0.77751425  0.89112003  0.71813837  1
  N  N36  1  0.09486879  0.21348703  0.47044182  1
  N  N37  1  0.23357159  0.11831529  0.21557660  1
  N  N38  1  0.11530927  0.21312316  0.97038648  1
  N  N39  1  0.23141820  0.11650473  0.72509449  1
  N  N40  1  0.10271313  0.54776911  0.46978870  1
  N  N41  1  0.22739090  0.44250760  0.22082336  1
  N  N42  1  0.11151489  0.55459176  0.96990401  1
  N  N43  1  0.22596581  0.44118006  0.72052150  1
  N  N44  1  0.10401890  0.88493491  0.47046455  1
  N  N45  1  0.21879502  0.77877484  0.22001424  1
  N  N46  1  0.11440087  0.90127262  0.97123124  1
  N  N47  1  0.22300649  0.78061595  0.71978616  1
  N  N48  1  0.44600185  0.22335567  0.47046611  1
  N  N49  1  0.55221300  0.11910558  0.22107163  1
  N  N50  1  0.43569322  0.21936437  0.97049860  1
  N  N51  1  0.55025685  0.11788029  0.71897445  1
  N  N52  1  0.45774612  0.57367499  0.47054859  1
  N  N53  1  0.56038686  0.43976910  0.22156501  1
  N  N54  1  0.44707765  0.55579662  0.97125752  1
  N  N55  1  0.55016818  0.43354395  0.72037727  1
  N  N56  1  0.45547632  0.88574284  0.46990310  1
  N  N57  1  0.56805629  0.78464176  0.22447308  1
  N  N58  1  0.44322947  0.89049787  0.97019737  1
  N  N59  1  0.56878708  0.78676941  0.71636803  1
  N  N60  1  0.78496100  0.22382183  0.46954649  1
  N  N61  1  0.88108465  0.09751328  0.22521853  1
  N  N62  1  0.77820058  0.21978321  0.96998069  1
  N  N63  1  0.88240045  0.10073556  0.71603752  1
  N  N64  1  0.78089639  0.54993505  0.46635307  1
  N  N65  1  0.88119462  0.44890967  0.22715856  1
  N  N66  1  0.77949115  0.55752789  0.97868724  1
  N  N67  1  0.88444291  0.44247188  0.71193575  1
  N  N68  1  0.77582600  0.89378703  0.47043141  1
  N  N69  1  0.87501090  0.77068803  0.22152544  1
  N  N70  1  0.77946198  0.89042641  0.97107409  1
  N  N71  1  0.87992032  0.78331574  0.72088071  1
