# generated using pymatgen
data_Hf3C2N
_symmetry_space_group_name_H-M   'P 1'
_cell_length_a   3.26196362
_cell_length_b   4.60641960
_cell_length_c   5.65145195
_cell_angle_alpha   65.94941571
_cell_angle_beta   73.22612963
_cell_angle_gamma   90.00000000
_symmetry_Int_Tables_number   1
_chemical_formula_structural   Hf3C2N
_chemical_formula_sum   'Hf3 C2 N1'
_cell_volume   73.57209954
_cell_formula_units_Z   1
loop_
 _symmetry_equiv_pos_site_id
 _symmetry_equiv_pos_as_xyz
  1  'x, y, z'
loop_
 _atom_site_type_symbol
 _atom_site_label
 _atom_site_symmetry_multiplicity
 _atom_site_fract_x
 _atom_site_fract_y
 _atom_site_fract_z
 _atom_site_occupancy
  C  C0  1  0.99963861  0.49963861  0.00072277  1
  C  C1  1  0.33369472  0.83369472  0.33261056  1
  N  N2  1  0.66666667  0.16666667  0.66666667  1
  Hf  Hf3  1  0.99844988  0.99844988  0.00310026  1
  Hf  Hf4  1  0.33488345  0.33488345  0.33023307  1
  Hf  Hf5  1  0.66666667  0.66666667  0.66666667  1
