# generated using pymatgen
data_Hf5C3N2
_symmetry_space_group_name_H-M   'P 1'
_cell_length_a   4.59631984
_cell_length_b   5.63713270
_cell_length_c   5.64617159
_cell_angle_alpha   99.49220859
_cell_angle_beta   114.01838585
_cell_angle_gamma   65.94066859
_symmetry_Int_Tables_number   1
_chemical_formula_structural   Hf5C3N2
_chemical_formula_sum   'Hf5 C3 N2'
_cell_volume   122.01689946
_cell_formula_units_Z   1
loop_
 _symmetry_equiv_pos_site_id
 _symmetry_equiv_pos_as_xyz
  1  'x, y, z'
loop_
 _atom_site_type_symbol
 _atom_site_label
 _atom_site_symmetry_multiplicity
 _atom_site_fract_x
 _atom_site_fract_y
 _atom_site_fract_z
 _atom_site_occupancy
  C  C0  1  0.90052779  0.79727149  0.59832708  1
  C  C1  1  0.50000000  0.00000000  0.00000000  1
  C  C2  1  0.09947221  0.20272851  0.40167292  1
  N  N3  1  0.70145587  0.40020464  0.80311639  1
  N  N4  1  0.29854413  0.59979536  0.19688361  1
  Hf  Hf5  1  0.00000000  0.00000000  0.00000000  1
  Hf  Hf6  1  0.59970386  0.19678029  0.39618800  1
  Hf  Hf7  1  0.19827165  0.39934107  0.79588437  1
  Hf  Hf8  1  0.80172835  0.60065893  0.20411563  1
  Hf  Hf9  1  0.40029614  0.80321971  0.60381200  1
