# generated using pymatgen
data_Hf2CN
_symmetry_space_group_name_H-M   'P 1'
_cell_length_a   4.58186095
_cell_length_b   4.58186095
_cell_length_c   5.63709994
_cell_angle_alpha   66.02096653
_cell_angle_beta   66.02096653
_cell_angle_gamma   90.00000000
_symmetry_Int_Tables_number   1
_chemical_formula_structural   Hf2CN
_chemical_formula_sum   'Hf4 C2 N2'
_cell_volume   96.84369803
_cell_formula_units_Z   2
loop_
 _symmetry_equiv_pos_site_id
 _symmetry_equiv_pos_as_xyz
  1  'x, y, z'
loop_
 _atom_site_type_symbol
 _atom_site_label
 _atom_site_symmetry_multiplicity
 _atom_site_fract_x
 _atom_site_fract_y
 _atom_site_fract_z
 _atom_site_occupancy
  C  C0  1  0.25000000  0.25000000  0.50000000  1
  C  C1  1  0.50000000  0.00000000  0.00000000  1
  N  N2  1  0.75000000  0.75000000  0.50000000  1
  N  N3  1  0.00000000  0.50000000  0.00000000  1
  Hf  Hf4  1  0.49700954  0.49700954  0.00598092  1
  Hf  Hf5  1  0.74700954  0.24700954  0.50598092  1
  Hf  Hf6  1  0.00299046  0.00299046  0.99401908  1
  Hf  Hf7  1  0.25299046  0.75299046  0.49401908  1
