# generated using pymatgen
data_Hf3CN2
_symmetry_space_group_name_H-M   'P 1'
_cell_length_a   3.23413684
_cell_length_b   4.56407138
_cell_length_c   5.60991506
_cell_angle_alpha   65.99689563
_cell_angle_beta   73.24667398
_cell_angle_gamma   90.00000000
_symmetry_Int_Tables_number   1
_chemical_formula_structural   Hf3CN2
_chemical_formula_sum   'Hf3 C1 N2'
_cell_volume   71.78159034
_cell_formula_units_Z   1
loop_
 _symmetry_equiv_pos_site_id
 _symmetry_equiv_pos_as_xyz
  1  'x, y, z'
loop_
 _atom_site_type_symbol
 _atom_site_label
 _atom_site_symmetry_multiplicity
 _atom_site_fract_x
 _atom_site_fract_y
 _atom_site_fract_z
 _atom_site_occupancy
  C  C0  1  0.00000000  0.50000000  0.00000000  1
  N  N1  1  0.33389416  0.83389416  0.33221168  1
  N  N2  1  0.66610584  0.16610584  0.66778832  1
  Hf  Hf3  1  0.00000000  0.00000000  0.00000000  1
  Hf  Hf4  1  0.33659130  0.33659130  0.32681740  1
  Hf  Hf5  1  0.66340870  0.66340870  0.67318260  1
