# generated using pymatgen
data_Hf5CN4
_symmetry_space_group_name_H-M   'P 1'
_cell_length_a   4.55231330
_cell_length_b   5.58472821
_cell_length_c   5.58472821
_cell_angle_alpha   99.56182120
_cell_angle_beta   114.05215325
_cell_angle_gamma   65.94784675
_symmetry_Int_Tables_number   1
_chemical_formula_structural   Hf5CN4
_chemical_formula_sum   'Hf5 C1 N4'
_cell_volume   118.39793044
_cell_formula_units_Z   1
loop_
 _symmetry_equiv_pos_site_id
 _symmetry_equiv_pos_as_xyz
  1  'x, y, z'
loop_
 _atom_site_type_symbol
 _atom_site_label
 _atom_site_symmetry_multiplicity
 _atom_site_fract_x
 _atom_site_fract_y
 _atom_site_fract_z
 _atom_site_occupancy
  C  C0  1  0.90000000  0.80000000  0.60000000  1
  N  N1  1  0.50023531  0.00034352  0.00081414  1
  N  N2  1  0.09942117  0.20081414  0.39965648  1
  N  N3  1  0.70057883  0.39918586  0.80034352  1
  N  N4  1  0.29976469  0.59965648  0.19918586  1
  Hf  Hf5  1  0.99763310  0.99939572  0.99466191  1
  Hf  Hf6  1  0.60297119  0.19466191  0.40060428  1
  Hf  Hf7  1  0.19702881  0.40533809  0.79939572  1
  Hf  Hf8  1  0.80236690  0.60060428  0.20533809  1
  Hf  Hf9  1  0.40000000  0.80000000  0.60000000  1
