# generated using pymatgen
data_Hf3TaN4
_symmetry_space_group_name_H-M   'P 1'
_cell_length_a   3.18067638
_cell_length_b   5.55995378
_cell_length_c   5.49185919
_cell_angle_alpha   99.94428350
_cell_angle_beta   106.83287402
_cell_angle_gamma   90.00000000
_symmetry_Int_Tables_number   1
_chemical_formula_structural   Hf3TaN4
_chemical_formula_sum   'Hf3 Ta1 N4'
_cell_volume   91.43354128
_cell_formula_units_Z   1
loop_
 _symmetry_equiv_pos_site_id
 _symmetry_equiv_pos_as_xyz
  1  'x, y, z'
loop_
 _atom_site_type_symbol
 _atom_site_label
 _atom_site_symmetry_multiplicity
 _atom_site_fract_x
 _atom_site_fract_y
 _atom_site_fract_z
 _atom_site_occupancy
  Ta  Ta0  1  -0.00000000  -0.00000000  0.00000000  1
  Hf  Hf1  1  0.74410691  0.24251906  0.48821385  1
  Hf  Hf2  1  0.50000000  0.50000000  0.00000000  1
  Hf  Hf3  1  0.25589309  0.75748094  0.51178615  1
  N  N4  1  0.87355468  0.61902680  0.74710937  1
  N  N5  1  0.62535057  0.86930901  0.25070114  1
  N  N6  1  0.37464943  0.13069099  0.74929886  1
  N  N7  1  0.12644532  0.38097320  0.25289063  1
