# generated using pymatgen
data_Ta5CN4
_symmetry_space_group_name_H-M   'P 1'
_cell_length_a   4.40849519
_cell_length_b   5.44464556
_cell_length_c   5.44464556
_cell_angle_alpha   99.43339552
_cell_angle_beta   113.88153015
_cell_angle_gamma   66.11846985
_symmetry_Int_Tables_number   1
_chemical_formula_structural   Ta5CN4
_chemical_formula_sum   'Ta5 C1 N4'
_cell_volume   109.26657180
_cell_formula_units_Z   1
loop_
 _symmetry_equiv_pos_site_id
 _symmetry_equiv_pos_as_xyz
  1  'x, y, z'
loop_
 _atom_site_type_symbol
 _atom_site_label
 _atom_site_symmetry_multiplicity
 _atom_site_fract_x
 _atom_site_fract_y
 _atom_site_fract_z
 _atom_site_occupancy
  C  C0  1  0.90000000  0.80000000  0.60000000  1
  N  N1  1  0.49120441  0.02176784  0.00417664  1
  N  N2  1  0.08702776  0.20417664  0.37823216  1
  N  N3  1  0.71297224  0.39582336  0.82176784  1
  N  N4  1  0.30879559  0.57823216  0.19582336  1
  Ta  Ta5  1  0.01097933  0.97372444  0.99568308  1
  Ta  Ta6  1  0.61529624  0.19568308  0.42627556  1
  Ta  Ta7  1  0.18470376  0.40431692  0.77372444  1
  Ta  Ta8  1  0.78902067  0.62627556  0.20431692  1
  Ta  Ta9  1  0.40000000  0.80000000  0.60000000  1
