# generated using pymatgen
data_HfTa3C4
_symmetry_space_group_name_H-M   'P 1'
_cell_length_a   3.18874464
_cell_length_b   5.52709537
_cell_length_c   5.53964741
_cell_angle_alpha   99.69820179
_cell_angle_beta   106.72695869
_cell_angle_gamma   90.00000000
_symmetry_Int_Tables_number   1
_chemical_formula_structural   HfTa3C4
_chemical_formula_sum   'Hf1 Ta3 C4'
_cell_volume   92.04443692
_cell_formula_units_Z   1
loop_
 _symmetry_equiv_pos_site_id
 _symmetry_equiv_pos_as_xyz
  1  'x, y, z'
loop_
 _atom_site_type_symbol
 _atom_site_label
 _atom_site_symmetry_multiplicity
 _atom_site_fract_x
 _atom_site_fract_y
 _atom_site_fract_z
 _atom_site_occupancy
  Ta  Ta0  1  0.99885984  0.00061458  0.99771969  1
  Ta  Ta1  1  0.75000000  0.25000000  0.50000000  1
  Ta  Ta2  1  0.50114016  0.49938542  0.00228031  1
  Hf  Hf3  1  0.25000000  0.75000000  0.50000000  1
  C  C4  1  0.87787180  0.62115256  0.75574359  1
  C  C5  1  0.62212820  0.87884744  0.24425641  1
  C  C6  1  0.37610251  0.13010136  0.75220502  1
  C  C7  1  0.12389749  0.36989864  0.24779498  1
