# generated using pymatgen
data_Hf3TaC4
_symmetry_space_group_name_H-M   'P 1'
_cell_length_a   3.25321782
_cell_length_b   5.62816150
_cell_length_c   5.63635983
_cell_angle_alpha   99.72444887
_cell_angle_beta   106.77368575
_cell_angle_gamma   90.00000000
_symmetry_Int_Tables_number   1
_chemical_formula_structural   Hf3TaC4
_chemical_formula_sum   'Hf3 Ta1 C4'
_cell_volume   97.25901850
_cell_formula_units_Z   1
loop_
 _symmetry_equiv_pos_site_id
 _symmetry_equiv_pos_as_xyz
  1  'x, y, z'
loop_
 _atom_site_type_symbol
 _atom_site_label
 _atom_site_symmetry_multiplicity
 _atom_site_fract_x
 _atom_site_fract_y
 _atom_site_fract_z
 _atom_site_occupancy
  Ta  Ta0  1  0.00000000  0.00000000  0.00000000  1
  Hf  Hf1  1  0.75145377  0.24981534  0.50290754  1
  Hf  Hf2  1  0.50000000  0.50000000  0.00000000  1
  Hf  Hf3  1  0.24854623  0.75018466  0.49709246  1
  C  C4  1  0.87664581  0.63149052  0.75329161  1
  C  C5  1  0.62158995  0.87900097  0.24317989  1
  C  C6  1  0.37841005  0.12099903  0.75682011  1
  C  C7  1  0.12335419  0.36850948  0.24670839  1
