# generated using pymatgen
data_Hf4TaC5
_symmetry_space_group_name_H-M   'P 1'
_cell_length_a   3.25914191
_cell_length_b   7.27987038
_cell_length_c   5.64782860
_cell_angle_alpha   104.91899461
_cell_angle_beta   106.77000124
_cell_angle_gamma   77.06496306
_symmetry_Int_Tables_number   1
_chemical_formula_structural   Hf4TaC5
_chemical_formula_sum   'Hf4 Ta1 C5'
_cell_volume   122.34653542
_cell_formula_units_Z   1
loop_
 _symmetry_equiv_pos_site_id
 _symmetry_equiv_pos_as_xyz
  1  'x, y, z'
loop_
 _atom_site_type_symbol
 _atom_site_label
 _atom_site_symmetry_multiplicity
 _atom_site_fract_x
 _atom_site_fract_y
 _atom_site_fract_z
 _atom_site_occupancy
  Ta  Ta0  1  -0.00000000  0.00000000  -0.00000000  1
  Hf  Hf1  1  0.39918055  0.40040465  0.19876575  1
  Hf  Hf2  1  0.80081715  0.80118085  0.40281514  1
  Hf  Hf3  1  0.19918285  0.19881915  0.59718486  1
  Hf  Hf4  1  0.60081945  0.59959535  0.80123425  1
  C  C5  1  0.80314047  0.29416191  0.90044286  1
  C  C6  1  0.19685953  0.70583809  0.09955714  1
  C  C7  1  0.59689214  0.09693302  0.29071730  1
  C  C8  1  -0.00000000  0.50000000  0.50000000  1
  C  C9  1  0.40310786  0.90306698  0.70928270  1
