# generated using pymatgen
data_Hf5C2N3
_symmetry_space_group_name_H-M   'P 1'
_cell_length_a   4.57215479
_cell_length_b   5.61287559
_cell_length_c   5.61795851
_cell_angle_alpha   99.46483586
_cell_angle_beta   114.01169840
_cell_angle_gamma   65.96518568
_symmetry_Int_Tables_number   1
_chemical_formula_structural   Hf5C2N3
_chemical_formula_sum   'Hf5 C2 N3'
_cell_volume   120.27838674
_cell_formula_units_Z   1
loop_
 _symmetry_equiv_pos_site_id
 _symmetry_equiv_pos_as_xyz
  1  'x, y, z'
loop_
 _atom_site_type_symbol
 _atom_site_label
 _atom_site_symmetry_multiplicity
 _atom_site_fract_x
 _atom_site_fract_y
 _atom_site_fract_z
 _atom_site_occupancy
  C  C0  1  0.89914307  0.80001869  0.59830483  1
  C  C1  1  0.50085693  0.99998131  0.00169517  1
  N  N2  1  0.09965782  0.20299570  0.40231133  1
  N  N3  1  0.70000000  0.40000000  0.80000000  1
  N  N4  1  0.30034218  0.59700430  0.19768867  1
  Hf  Hf5  1  0.99699522  0.00127136  0.99526179  1
  Hf  Hf6  1  0.60054320  0.19435848  0.39544487  1
  Hf  Hf7  1  0.20000000  0.40000000  0.80000000  1
  Hf  Hf8  1  0.79945680  0.60564152  0.20455513  1
  Hf  Hf9  1  0.40300478  0.79872864  0.60473821  1
