# generated using pymatgen
data_Hf3Ta2N5
_symmetry_space_group_name_H-M   'P 1'
_cell_length_a   4.47377787
_cell_length_b   5.53924645
_cell_length_c   5.47941897
_cell_angle_alpha   99.06571534
_cell_angle_beta   114.09398936
_cell_angle_gamma   66.18245248
_symmetry_Int_Tables_number   1
_chemical_formula_structural   Hf3Ta2N5
_chemical_formula_sum   'Hf3 Ta2 N5'
_cell_volume   113.39622737
_cell_formula_units_Z   1
loop_
 _symmetry_equiv_pos_site_id
 _symmetry_equiv_pos_as_xyz
  1  'x, y, z'
loop_
 _atom_site_type_symbol
 _atom_site_label
 _atom_site_symmetry_multiplicity
 _atom_site_fract_x
 _atom_site_fract_y
 _atom_site_fract_z
 _atom_site_occupancy
  Ta  Ta0  1  0.97838295  0.01119843  0.96796430  1
  Ta  Ta1  1  0.62161705  0.18880157  0.43203570  1
  Hf  Hf2  1  0.20683801  0.39102576  0.80470178  1
  Hf  Hf3  1  0.80000000  0.60000000  0.20000000  1
  Hf  Hf4  1  0.39316199  0.80897424  0.59529822  1
  N  N5  1  0.90753598  0.78114565  0.59621760  1
  N  N6  1  0.50797481  0.00273776  0.01868739  1
  N  N7  1  0.09202519  0.19726224  0.38131261  1
  N  N8  1  0.69246402  0.41885435  0.80378240  1
  N  N9  1  0.30000000  0.60000000  0.20000000  1
