# generated using pymatgen
data_Hf4TaN5
_symmetry_space_group_name_H-M   'P 1'
_cell_length_a   4.50381046
_cell_length_b   5.52626846
_cell_length_c   5.52626846
_cell_angle_alpha   99.55817837
_cell_angle_beta   114.04732696
_cell_angle_gamma   65.95267304
_symmetry_Int_Tables_number   1
_chemical_formula_structural   Hf4TaN5
_chemical_formula_sum   'Hf4 Ta1 N5'
_cell_volume   114.70559351
_cell_formula_units_Z   1
loop_
 _symmetry_equiv_pos_site_id
 _symmetry_equiv_pos_as_xyz
  1  'x, y, z'
loop_
 _atom_site_type_symbol
 _atom_site_label
 _atom_site_symmetry_multiplicity
 _atom_site_fract_x
 _atom_site_fract_y
 _atom_site_fract_z
 _atom_site_occupancy
  Ta  Ta0  1  0.00000000  0.00000000  0.00000000  1
  Hf  Hf1  1  0.60570908  0.19445896  0.40587711  1
  Hf  Hf2  1  0.19983195  0.40587711  0.80554104  1
  Hf  Hf3  1  0.80016805  0.59412289  0.19445896  1
  Hf  Hf4  1  0.39429092  0.80554104  0.59412289  1
  N  N5  1  0.89965879  0.79587385  0.59519142  1
  N  N6  1  0.50000000  0.00000000  0.00000000  1
  N  N7  1  0.10034121  0.20412615  0.40480858  1
  N  N8  1  0.69553264  0.40480858  0.79587385  1
  N  N9  1  0.30446736  0.59519142  0.20412615  1
