# generated using pymatgen
data_Ta5C4N
_symmetry_space_group_name_H-M   'P 1'
_cell_length_a   4.45502259
_cell_length_b   5.48094217
_cell_length_c   5.48094217
_cell_angle_alpha   99.50707110
_cell_angle_beta   113.97953357
_cell_angle_gamma   66.02046643
_symmetry_Int_Tables_number   1
_chemical_formula_structural   Ta5C4N
_chemical_formula_sum   'Ta5 C4 N1'
_cell_volume   111.72715685
_cell_formula_units_Z   1
loop_
 _symmetry_equiv_pos_site_id
 _symmetry_equiv_pos_as_xyz
  1  'x, y, z'
loop_
 _atom_site_type_symbol
 _atom_site_label
 _atom_site_symmetry_multiplicity
 _atom_site_fract_x
 _atom_site_fract_y
 _atom_site_fract_z
 _atom_site_occupancy
  C  C0  1  0.90214045  0.79795949  0.60224039  1
  C  C1  1  0.49990006  0.00224039  0.00204051  1
  C  C2  1  0.10009994  0.19775961  0.39795949  1
  C  C3  1  0.69785955  0.40204051  0.79775961  1
  N  N4  1  0.30000000  0.60000000  0.20000000  1
  Ta  Ta5  1  0.99131656  0.01536945  0.99800259  1
  Ta  Ta6  1  0.60868344  0.18463055  0.40199741  1
  Ta  Ta7  1  0.19331397  0.39800259  0.78463055  1
  Ta  Ta8  1  0.80000000  0.60000000  0.20000000  1
  Ta  Ta9  1  0.40668603  0.80199741  0.61536945  1
