# generated using pymatgen
data_Ta3C2N
_symmetry_space_group_name_H-M   'P 1'
_cell_length_a   3.16220320
_cell_length_b   4.43748728
_cell_length_c   5.48354882
_cell_angle_alpha   66.13279633
_cell_angle_beta   73.24167103
_cell_angle_gamma   90.00000000
_symmetry_Int_Tables_number   1
_chemical_formula_structural   Ta3C2N
_chemical_formula_sum   'Ta3 C2 N1'
_cell_volume   66.77723292
_cell_formula_units_Z   1
loop_
 _symmetry_equiv_pos_site_id
 _symmetry_equiv_pos_as_xyz
  1  'x, y, z'
loop_
 _atom_site_type_symbol
 _atom_site_label
 _atom_site_symmetry_multiplicity
 _atom_site_fract_x
 _atom_site_fract_y
 _atom_site_fract_z
 _atom_site_occupancy
  C  C0  1  0.00343888  0.50343888  0.99312223  1
  C  C1  1  0.32989445  0.82989445  0.34021110  1
  N  N2  1  0.66666667  0.16666667  0.66666667  1
  Ta  Ta3  1  0.98947539  0.98947539  0.02104923  1
  Ta  Ta4  1  0.34385794  0.34385794  0.31228410  1
  Ta  Ta5  1  0.66666667  0.66666667  0.66666667  1
