# generated using pymatgen
data_Ta5C3N2
_symmetry_space_group_name_H-M   'P 1'
_cell_length_a   3.14349213
_cell_length_b   7.04287120
_cell_length_c   5.49864751
_cell_angle_alpha   105.01135099
_cell_angle_beta   106.60920367
_cell_angle_gamma   77.10480506
_symmetry_Int_Tables_number   1
_chemical_formula_structural   Ta5C3N2
_chemical_formula_sum   'Ta5 C3 N2'
_cell_volume   111.20333927
_cell_formula_units_Z   1
loop_
 _symmetry_equiv_pos_site_id
 _symmetry_equiv_pos_as_xyz
  1  'x, y, z'
loop_
 _atom_site_type_symbol
 _atom_site_label
 _atom_site_symmetry_multiplicity
 _atom_site_fract_x
 _atom_site_fract_y
 _atom_site_fract_z
 _atom_site_occupancy
  C  C0  1  0.79996237  0.29622885  0.89615362  1
  C  C1  1  0.20000000  0.70000000  0.10000000  1
  C  C2  1  0.60003763  0.10377115  0.30384638  1
  N  N3  1  0.99980510  0.50444451  0.50405469  1
  N  N4  1  0.40019490  0.89555549  0.69594531  1
  Ta  Ta5  1  0.00455065  0.00529109  0.01439239  1
  Ta  Ta6  1  0.39544935  0.39470891  0.18560761  1
  Ta  Ta7  1  0.78801940  0.80193401  0.37797280  1
  Ta  Ta8  1  0.20000000  0.20000000  0.60000000  1
  Ta  Ta9  1  0.61198060  0.59806599  0.82202720  1
