# generated using pymatgen
data_HfTa4C5
_symmetry_space_group_name_H-M   'P 1'
_cell_length_a   3.18582605
_cell_length_b   7.12819911
_cell_length_c   5.52553548
_cell_angle_alpha   105.00612633
_cell_angle_beta   106.75513629
_cell_angle_gamma   77.08728644
_symmetry_Int_Tables_number   1
_chemical_formula_structural   HfTa4C5
_chemical_formula_sum   'Hf1 Ta4 C5'
_cell_volume   114.54354159
_cell_formula_units_Z   1
loop_
 _symmetry_equiv_pos_site_id
 _symmetry_equiv_pos_as_xyz
  1  'x, y, z'
loop_
 _atom_site_type_symbol
 _atom_site_label
 _atom_site_symmetry_multiplicity
 _atom_site_fract_x
 _atom_site_fract_y
 _atom_site_fract_z
 _atom_site_occupancy
  Ta  Ta0  1  0.00019803  0.00034239  0.00073847  1
  Ta  Ta1  1  0.40064148  0.39572025  0.19700321  1
  Ta  Ta2  1  0.79935852  0.80427975  0.40299679  1
  Ta  Ta3  1  0.19980197  0.19965761  0.59926153  1
  Hf  Hf4  1  0.60000000  0.60000000  0.80000000  1
  C  C5  1  0.80115165  0.29583011  0.89813341  1
  C  C6  1  0.20352340  0.70117521  0.10822201  1
  C  C7  1  0.60000000  0.10000000  0.30000000  1
  C  C8  1  0.99647660  0.49882479  0.49177799  1
  C  C9  1  0.39884835  0.90416989  0.70186659  1
