# generated using pymatgen
data_HfTa2C3
_symmetry_space_group_name_H-M   'P 1'
_cell_length_a   3.20609205
_cell_length_b   3.20609205
_cell_length_c   7.82950416
_cell_angle_alpha   90.00000000
_cell_angle_beta   90.00000000
_cell_angle_gamma   120.00000010
_symmetry_Int_Tables_number   1
_chemical_formula_structural   HfTa2C3
_chemical_formula_sum   'Hf1 Ta2 C3'
_cell_volume   69.69744615
_cell_formula_units_Z   1
loop_
 _symmetry_equiv_pos_site_id
 _symmetry_equiv_pos_as_xyz
  1  'x, y, z'
loop_
 _atom_site_type_symbol
 _atom_site_label
 _atom_site_symmetry_multiplicity
 _atom_site_fract_x
 _atom_site_fract_y
 _atom_site_fract_z
 _atom_site_occupancy
  Ta  Ta0  1  0.00000000  0.00000000  0.00552276  1
  Ta  Ta1  1  0.66666667  0.33333333  0.32781057  1
  Hf  Hf2  1  0.33333333  0.66666667  0.66666667  1
  C  C3  1  0.00000000  0.00000000  0.49266580  1
  C  C4  1  0.66666667  0.33333333  0.84066753  1
  C  C5  1  0.33333333  0.66666667  0.16666667  1
