# generated using pymatgen
data_Hf3Ta2C5
_symmetry_space_group_name_H-M   'P 1'
_cell_length_a   3.23030107
_cell_length_b   7.21892929
_cell_length_c   5.60781157
_cell_angle_alpha   104.94311153
_cell_angle_beta   106.73933231
_cell_angle_gamma   77.07130671
_symmetry_Int_Tables_number   1
_chemical_formula_structural   Hf3Ta2C5
_chemical_formula_sum   'Hf3 Ta2 C5'
_cell_volume   119.40472436
_cell_formula_units_Z   1
loop_
 _symmetry_equiv_pos_site_id
 _symmetry_equiv_pos_as_xyz
  1  'x, y, z'
loop_
 _atom_site_type_symbol
 _atom_site_label
 _atom_site_symmetry_multiplicity
 _atom_site_fract_x
 _atom_site_fract_y
 _atom_site_fract_z
 _atom_site_occupancy
  Ta  Ta0  1  0.00157539  0.99905559  0.00220638  1
  Ta  Ta1  1  0.39842461  0.40094441  0.19779362  1
  Hf  Hf2  1  0.79994182  0.80188214  0.40176577  1
  Hf  Hf3  1  0.20000000  0.20000000  0.60000000  1
  Hf  Hf4  1  0.60005818  0.59811786  0.79823423  1
  C  C5  1  0.80544150  0.29737250  0.90825551  1
  C  C6  1  0.20000000  0.70000000  0.10000000  1
  C  C7  1  0.59455850  0.10262750  0.29174449  1
  C  C8  1  0.99659975  0.49716752  0.49036703  1
  C  C9  1  0.40340025  0.90283248  0.70963297  1
