# generated using pymatgen
data_HfTa4C5
_symmetry_space_group_name_H-M   'P 1'
_cell_length_a   7.80243404
_cell_length_b   3.18984198
_cell_length_c   9.55735793
_cell_angle_alpha   90.00000000
_cell_angle_beta   105.77777526
_cell_angle_gamma   90.00000000
_symmetry_Int_Tables_number   1
_chemical_formula_structural   HfTa4C5
_chemical_formula_sum   'Hf2 Ta8 C10'
_cell_volume   228.90655766
_cell_formula_units_Z   2
loop_
 _symmetry_equiv_pos_site_id
 _symmetry_equiv_pos_as_xyz
  1  'x, y, z'
loop_
 _atom_site_type_symbol
 _atom_site_label
 _atom_site_symmetry_multiplicity
 _atom_site_fract_x
 _atom_site_fract_y
 _atom_site_fract_z
 _atom_site_occupancy
  C  C0  1  0.80084928  0.50000000  0.89926844  1
  C  C1  1  0.60176369  0.50000000  0.29672487  1
  C  C2  1  0.70376519  0.00000000  0.60128690  1
  C  C3  1  0.99915072  0.50000000  0.50073156  1
  C  C4  1  0.09623481  0.00000000  0.79871310  1
  C  C5  1  0.40000000  0.50000000  0.70000000  1
  C  C6  1  0.50541340  0.00000000  0.00290652  1
  C  C7  1  0.90000000  0.00000000  0.20000000  1
  C  C8  1  0.19823631  0.50000000  0.10327513  1
  C  C9  1  0.29458660  0.00000000  0.39709348  1
  Hf  Hf10  1  0.50049291  0.50000000  0.49915081  1
  Hf  Hf11  1  0.29950709  0.50000000  0.90084919  1
  Ta  Ta12  1  0.90000000  0.50000000  0.70000000  1
  Ta  Ta13  1  0.70378091  0.50000000  0.10043659  1
  Ta  Ta14  1  0.80172999  0.00000000  0.39980268  1
  Ta  Ta15  1  0.09621909  0.50000000  0.29956341  1
  Ta  Ta16  1  0.19781577  0.00000000  0.59867742  1
  Ta  Ta17  1  0.60218423  0.00000000  0.80132258  1
  Ta  Ta18  1  0.99827001  0.00000000  0.00019732  1
  Ta  Ta19  1  0.40000000  0.00000000  0.20000000  1
