# generated using pymatgen
data_HfTa4C5
_symmetry_space_group_name_H-M   'P 1'
_cell_length_a   7.80688886
_cell_length_b   7.80914460
_cell_length_c   8.43147952
_cell_angle_alpha   90.04646285
_cell_angle_beta   108.00248668
_cell_angle_gamma   109.38875798
_symmetry_Int_Tables_number   1
_chemical_formula_structural   HfTa4C5
_chemical_formula_sum   'Hf4 Ta16 C20'
_cell_volume   458.06276271
_cell_formula_units_Z   4
loop_
 _symmetry_equiv_pos_site_id
 _symmetry_equiv_pos_as_xyz
  1  'x, y, z'
loop_
 _atom_site_type_symbol
 _atom_site_label
 _atom_site_symmetry_multiplicity
 _atom_site_fract_x
 _atom_site_fract_y
 _atom_site_fract_z
 _atom_site_occupancy
  C  C0  1  0.89992852  0.80361709  0.39718097  1
  C  C1  1  0.64827099  0.04581718  0.39762222  1
  C  C2  1  0.39497935  0.29890740  0.39738235  1
  C  C3  1  0.20013838  0.89970025  0.20016313  1
  C  C4  1  0.15294492  0.55038977  0.39724886  1
  C  C5  1  0.95055446  0.14846276  0.19774111  1
  C  C6  1  0.74995613  0.75048562  0.99996752  1
  C  C7  1  0.69824080  0.39914394  0.19448498  1
  C  C8  1  0.49984797  0.00033934  0.00072757  1
  C  C9  1  0.44724764  0.65142215  0.19786041  1
  C  C10  1  0.25058372  0.24890163  0.99999602  1
  C  C11  1  0.04919723  0.85186453  0.80150881  1
  C  C12  1  0.99973152  0.50033614  0.99949465  1
  C  C13  1  0.80285849  0.09807250  0.80241025  1
  C  C14  1  0.59905576  0.70191952  0.60244950  1
  C  C15  1  0.54938353  0.35171153  0.80285074  1
  C  C16  1  0.34992293  0.95009530  0.59979136  1
  C  C17  1  0.30205357  0.59959140  0.80243799  1
  C  C18  1  0.10288307  0.19862913  0.60247815  1
  C  C19  1  0.85232422  0.45070437  0.60625787  1
  Hf  Hf20  1  0.90013991  0.29915034  0.39906002  1
  Hf  Hf21  1  0.64932933  0.55078051  0.39956710  1
  Hf  Hf22  1  0.59968235  0.19942987  0.60104138  1
  Hf  Hf23  1  0.10123350  0.70064194  0.60094247  1
  Ta  Ta24  1  0.39949806  0.79991087  0.39825235  1
  Ta  Ta25  1  0.19922807  0.40023433  0.19683774  1
  Ta  Ta26  1  0.14913238  0.04980624  0.39875404  1
  Ta  Ta27  1  0.95084514  0.65115527  0.19844169  1
  Ta  Ta28  1  0.74975678  0.24806814  0.99900745  1
  Ta  Ta29  1  0.69826037  0.89907805  0.19671076  1
  Ta  Ta30  1  0.49945270  0.50123445  0.99994950  1
  Ta  Ta31  1  0.44763539  0.14883736  0.19862006  1
  Ta  Ta32  1  0.24988655  0.75166590  0.99971364  1
  Ta  Ta33  1  0.05207162  0.34927334  0.80268426  1
  Ta  Ta34  1  0.00081850  0.99908320  0.00101727  1
  Ta  Ta35  1  0.80047337  0.60126321  0.80319474  1
  Ta  Ta36  1  0.55055156  0.85023685  0.80168377  1
  Ta  Ta37  1  0.35026638  0.44986608  0.60064707  1
  Ta  Ta38  1  0.30109925  0.09982160  0.80233172  1
  Ta  Ta39  1  0.85053558  0.95035089  0.60148855  1
