# generated using pymatgen
data_Ti3AlN4
_symmetry_space_group_name_H-M   'P 1'
_cell_length_a   7.31253179
_cell_length_b   7.31566167
_cell_length_c   6.64687245
_cell_angle_alpha   111.34603652
_cell_angle_beta   111.37573615
_cell_angle_gamma   70.72800221
_symmetry_Int_Tables_number   1
_chemical_formula_structural   Ti3AlN4
_chemical_formula_sum   'Ti12 Al4 N16'
_cell_volume   300.31327297
_cell_formula_units_Z   4
loop_
 _symmetry_equiv_pos_site_id
 _symmetry_equiv_pos_as_xyz
  1  'x, y, z'
loop_
 _atom_site_type_symbol
 _atom_site_label
 _atom_site_symmetry_multiplicity
 _atom_site_fract_x
 _atom_site_fract_y
 _atom_site_fract_z
 _atom_site_occupancy
  Al  Al0  1  0.56473887  0.06873327  0.75430336  1
  Al  Al1  1  0.38149358  0.37056294  0.50198189  1
  Al  Al2  1  0.80534354  0.31019341  0.74487859  1
  Al  Al3  1  0.68511433  0.18956039  0.24961775  1
  N  N4  1  0.50707183  0.00808382  0.99942785  1
  N  N5  1  0.56440783  0.55077632  0.74451838  1
  N  N6  1  0.38259287  0.88283675  0.51074651  1
  N  N7  1  0.44217702  0.42870516  0.25755778  1
  N  N8  1  0.25000177  0.75019690  0.00014099  1
  N  N9  1  0.05374352  0.07161128  0.75062632  1
  N  N10  1  0.32118796  0.30810536  0.74321171  1
  N  N11  1  0.13531123  0.61351234  0.49850771  1
  N  N12  1  0.92895975  0.94649402  0.25007464  1
  N  N13  1  0.19348440  0.19246808  0.25725852  1
  N  N14  1  0.99135922  0.49121708  0.98797533  1
  N  N15  1  0.80496096  0.82007928  0.74940492  1
  N  N16  1  0.86726385  0.36823005  0.49918909  1
  N  N17  1  0.68749696  0.68752639  0.25019547  1
  N  N18  1  0.74557211  0.24595304  0.99579427  1
  N  N19  1  0.62410334  0.13413294  0.50558524  1
  Ti  Ti20  1  0.49396137  0.50995742  0.00381025  1
  Ti  Ti21  1  0.43569479  0.93084007  0.24455248  1
  Ti  Ti22  1  0.24501733  0.25398471  0.00007570  1
  Ti  Ti23  1  0.06463507  0.56505002  0.75479674  1
  Ti  Ti24  1  0.30830484  0.81182774  0.74925983  1
  Ti  Ti25  1  0.12542877  0.11910855  0.49775390  1
  Ti  Ti26  1  0.93838742  0.44243290  0.25167268  1
  Ti  Ti27  1  0.18728077  0.68839792  0.24748455  1
  Ti  Ti28  1  0.00627966  0.99299534  0.99754676  1
  Ti  Ti29  1  0.88024129  0.86844208  0.49860593  1
  Ti  Ti30  1  0.75530373  0.74763756  0.00555644  1
  Ti  Ti31  1  0.62308000  0.63034681  0.49788839  1
