# generated using pymatgen
data_Ti3AlN4
_symmetry_space_group_name_H-M   'P 1'
_cell_length_a   7.32511050
_cell_length_b   7.32511049
_cell_length_c   2.96261301
_cell_angle_alpha   90.00000000
_cell_angle_beta   90.00000000
_cell_angle_gamma   109.13655670
_symmetry_Int_Tables_number   1
_chemical_formula_structural   Ti3AlN4
_chemical_formula_sum   'Ti6 Al2 N8'
_cell_volume   150.18119773
_cell_formula_units_Z   2
loop_
 _symmetry_equiv_pos_site_id
 _symmetry_equiv_pos_as_xyz
  1  'x, y, z'
loop_
 _atom_site_type_symbol
 _atom_site_label
 _atom_site_symmetry_multiplicity
 _atom_site_fract_x
 _atom_site_fract_y
 _atom_site_fract_z
 _atom_site_occupancy
  Ti  Ti0  1  0.87476291  0.12523709  0.50000000  1
  Ti  Ti1  1  0.75000000  0.75000000  0.00000000  1
  Ti  Ti2  1  0.98971874  0.48971874  0.00000000  1
  Ti  Ti3  1  0.25000000  0.25000000  0.00000000  1
  Ti  Ti4  1  0.62523709  0.37476291  0.50000000  1
  Ti  Ti5  1  0.51028126  0.01028126  0.00000000  1
  N  N6  1  0.13200891  0.38302035  0.50000000  1
  N  N7  1  0.00890620  0.99109380  0.00000000  1
  N  N8  1  0.36799109  0.11697965  0.50000000  1
  N  N9  1  0.25000000  0.75000000  0.00000000  1
  N  N10  1  0.61697965  0.86799109  0.50000000  1
  N  N11  1  0.49109380  0.50890620  0.00000000  1
  N  N12  1  0.88302035  0.63200891  0.50000000  1
  N  N13  1  0.75000000  0.25000000  0.00000000  1
  Al  Al14  1  0.12899670  0.87100330  0.50000000  1
  Al  Al15  1  0.37100330  0.62899670  0.50000000  1
