# generated using pymatgen
data_Ti3AlN4
_symmetry_space_group_name_H-M   'P 1'
_cell_length_a   7.32603124
_cell_length_b   7.32603123
_cell_length_c   2.96288582
_cell_angle_alpha   90.00000000
_cell_angle_beta   90.00000000
_cell_angle_gamma   109.14084128
_symmetry_Int_Tables_number   1
_chemical_formula_structural   Ti3AlN4
_chemical_formula_sum   'Ti6 Al2 N8'
_cell_volume   150.22888873
_cell_formula_units_Z   2
loop_
 _symmetry_equiv_pos_site_id
 _symmetry_equiv_pos_as_xyz
  1  'x, y, z'
loop_
 _atom_site_type_symbol
 _atom_site_label
 _atom_site_symmetry_multiplicity
 _atom_site_fract_x
 _atom_site_fract_y
 _atom_site_fract_z
 _atom_site_occupancy
  Ti  Ti0  1  0.87463435  0.12536565  0.50000000  1
  Ti  Ti1  1  0.75000000  0.75000000  0.00000000  1
  Ti  Ti2  1  0.98966964  0.48966964  0.00000000  1
  Ti  Ti3  1  0.25000000  0.25000000  0.00000000  1
  Ti  Ti4  1  0.62536565  0.37463435  0.50000000  1
  Ti  Ti5  1  0.51033036  0.01033036  0.00000000  1
  N  N6  1  0.13193938  0.38296235  0.50000000  1
  N  N7  1  0.00878098  0.99121902  0.00000000  1
  N  N8  1  0.36806062  0.11703765  0.50000000  1
  N  N9  1  0.25000000  0.75000000  0.00000000  1
  N  N10  1  0.61703765  0.86806062  0.50000000  1
  N  N11  1  0.49121902  0.50878098  0.00000000  1
  N  N12  1  0.88296235  0.63193938  0.50000000  1
  N  N13  1  0.75000000  0.25000000  0.00000000  1
  Al  Al14  1  0.12896385  0.87103615  0.50000000  1
  Al  Al15  1  0.37103615  0.62896385  0.50000000  1
