# generated using pymatgen
data_Ti3AlN4
_symmetry_space_group_name_H-M   'P 1'
_cell_length_a   7.30847882
_cell_length_b   7.29619539
_cell_length_c   7.30847882
_cell_angle_alpha   109.44710030
_cell_angle_beta   109.53537971
_cell_angle_gamma   109.44710029
_symmetry_Int_Tables_number   1
_chemical_formula_structural   Ti3AlN4
_chemical_formula_sum   'Ti12 Al4 N16'
_cell_volume   299.94590977
_cell_formula_units_Z   4
loop_
 _symmetry_equiv_pos_site_id
 _symmetry_equiv_pos_as_xyz
  1  'x, y, z'
loop_
 _atom_site_type_symbol
 _atom_site_label
 _atom_site_symmetry_multiplicity
 _atom_site_fract_x
 _atom_site_fract_y
 _atom_site_fract_z
 _atom_site_occupancy
  Ti  Ti0  1  0.75595099  0.50354688  0.25937257  1
  Ti  Ti1  1  0.49666716  0.74605307  0.25060341  1
  Ti  Ti2  1  0.49404901  0.49645312  0.49062743  1
  Ti  Ti3  1  0.75333284  0.25394693  0.49939659  1
  Ti  Ti4  1  0.00937257  0.50354688  0.00595099  1
  Ti  Ti5  1  0.24939659  0.25394693  0.00333284  1
  Ti  Ti6  1  0.24979320  -0.00000000  0.25020680  1
  Ti  Ti7  1  0.24318881  0.74075424  0.49318881  1
  Ti  Ti8  1  0.24062743  0.49645312  0.74404901  1
  Ti  Ti9  1  0.00681119  0.25924576  0.25681119  1
  Ti  Ti10  1  0.00020680  -0.00000000  0.49979320  1
  Ti  Ti11  1  0.00060341  0.74605307  0.74666716  1
  N  N12  1  0.73914951  0.23878711  0.98914951  1
  N  N13  1  0.74404117  0.99333891  0.23637768  1
  N  N14  1  0.50647756  0.50000000  0.99352244  1
  N  N15  1  0.49911154  0.24009476  0.23993303  1
  N  N16  1  0.50595883  0.00666109  0.51362232  1
  N  N17  1  0.75088846  0.75990524  0.51006697  1
  N  N18  1  0.74352244  0.50000000  0.75647756  1
  N  N19  1  0.98637768  0.99333891  0.99404117  1
  N  N20  1  0.26006697  0.75990524  0.00088846  1
  N  N21  1  0.25029624  0.50000000  0.24970376  1
  N  N22  1  0.25936436  0.25008703  0.50936436  1
  N  N23  1  0.26362232  0.00666109  0.75595883  1
  N  N24  1  0.51085049  0.76121289  0.76085049  1
  N  N25  1  0.99063564  0.74991297  0.24063564  1
  N  N26  1  0.99970376  0.50000000  0.50029624  1
  N  N27  1  0.98993303  0.24009476  0.74911154  1
  Al  Al28  1  0.74420403  0.74797421  0.99420403  1
  Al  Al29  1  0.50399541  -0.00000000  0.99600459  1
  Al  Al30  1  0.74600459  0.00000000  0.75399541  1
  Al  Al31  1  0.50579597  0.25202579  0.75579597  1
