# generated using pymatgen
data_TiAlN2
_symmetry_space_group_name_H-M   'P 1'
_cell_length_a   5.94389673
_cell_length_b   10.25541859
_cell_length_c   8.45899152
_cell_angle_alpha   90.02967332
_cell_angle_beta   89.38106958
_cell_angle_gamma   90.05914824
_symmetry_Int_Tables_number   1
_chemical_formula_structural   TiAlN2
_chemical_formula_sum   'Ti12 Al12 N24'
_cell_volume   515.60558092
_cell_formula_units_Z   12
loop_
 _symmetry_equiv_pos_site_id
 _symmetry_equiv_pos_as_xyz
  1  'x, y, z'
loop_
 _atom_site_type_symbol
 _atom_site_label
 _atom_site_symmetry_multiplicity
 _atom_site_fract_x
 _atom_site_fract_y
 _atom_site_fract_z
 _atom_site_occupancy
  Al  Al0  1  0.66387279  0.66626593  0.27461020  1
  Al  Al1  1  0.66918943  0.33659062  0.27990603  1
  Al  Al2  1  0.16244501  0.83054277  0.27479616  1
  Al  Al3  1  0.17009500  0.50032541  0.78177069  1
  Al  Al4  1  0.16967472  0.16657510  0.78139892  1
  Al  Al5  1  0.16540085  0.83320587  0.78416472  1
  Al  Al6  1  0.33804256  0.33400393  0.53298741  1
  Al  Al7  1  0.33330071  0.66935791  0.02835024  1
  Al  Al8  1  0.83286301  0.50356823  0.03046295  1
  Al  Al9  1  0.83227012  0.16372957  0.03060341  1
  Al  Al10  1  0.33305289  0.99707660  0.02873932  1
  Al  Al11  1  0.83120869  0.83283664  0.03014356  1
  N  N12  1  0.66243582  0.66719870  0.03197083  1
  N  N13  1  0.16370440  0.50454763  0.02651610  1
  N  N14  1  0.67376436  0.33381685  0.03475735  1
  N  N15  1  0.16399700  0.16278797  0.02646976  1
  N  N16  1  0.66408709  0.99891163  0.02962175  1
  N  N17  1  0.16441356  0.83287456  0.02966547  1
  N  N18  1  0.66097089  0.66117604  0.51555779  1
  N  N19  1  0.17953867  0.49269277  0.54101738  1
  N  N20  1  0.65797009  0.33422359  0.52256291  1
  N  N21  1  0.17920917  0.17568931  0.54091442  1
  N  N22  1  0.65954283  0.00344110  0.52913021  1
  N  N23  1  0.16208507  0.83177510  0.53095735  1
  N  N24  1  0.33548562  0.67169481  0.27192775  1
  N  N25  1  0.82387000  0.50137270  0.26961421  1
  N  N26  1  0.34297051  0.33503387  0.28667585  1
  N  N27  1  0.82880973  0.17373761  0.27003568  1
  N  N28  1  0.32505911  0.99285406  0.27287614  1
  N  N29  1  0.83848493  0.82596472  0.27136615  1
  N  N30  1  0.32329277  0.66793181  0.78650082  1
  N  N31  1  0.84598093  0.49970394  0.78944144  1
  N  N32  1  0.33066711  0.33402847  0.78153002  1
  N  N33  1  0.84545968  0.16741070  0.78808244  1
  N  N34  1  0.32035207  0.99871445  0.78717201  1
  N  N35  1  0.84391354  0.83241724  0.78745445  1
  Ti  Ti36  1  0.16475396  0.50129000  0.28515378  1
  Ti  Ti37  1  0.16513761  0.16609039  0.28597366  1
  Ti  Ti38  1  0.66634222  0.99915650  0.28990244  1
  Ti  Ti39  1  0.67026686  0.66666690  0.76883732  1
  Ti  Ti40  1  0.67334351  0.33365153  0.77581712  1
  Ti  Ti41  1  0.66840603  0.99905981  0.76865680  1
  Ti  Ti42  1  0.33267666  0.66714691  0.53150065  1
  Ti  Ti43  1  0.83686466  0.50072933  0.53235553  1
  Ti  Ti44  1  0.83696744  0.16603338  0.52818227  1
  Ti  Ti45  1  0.32824045  0.99927381  0.52886049  1
  Ti  Ti46  1  0.82560946  0.83327082  0.52999630  1
  Ti  Ti47  1  0.33391042  0.33355239  0.03501174  1
