# generated using pymatgen
data_Ti7AlC8
_symmetry_space_group_name_H-M   'P 1'
_cell_length_a   8.66353459
_cell_length_b   8.67045621
_cell_length_c   9.18843353
_cell_angle_alpha   103.62441295
_cell_angle_beta   103.60845166
_cell_angle_gamma   89.99187877
_symmetry_Int_Tables_number   1
_chemical_formula_structural   Ti7AlC8
_chemical_formula_sum   'Ti28 Al4 C32'
_cell_volume   650.83495049
_cell_formula_units_Z   4
loop_
 _symmetry_equiv_pos_site_id
 _symmetry_equiv_pos_as_xyz
  1  'x, y, z'
loop_
 _atom_site_type_symbol
 _atom_site_label
 _atom_site_symmetry_multiplicity
 _atom_site_fract_x
 _atom_site_fract_y
 _atom_site_fract_z
 _atom_site_occupancy
  Al  Al0  1  0.18840531  0.93708906  0.75001134  1
  Al  Al1  1  0.68672769  0.93695697  0.74998396  1
  Al  Al2  1  0.62507348  0.62642669  0.50105360  1
  Al  Al3  1  0.49967300  0.99932955  0.99850814  1
  C  C4  1  0.62480335  0.87568579  0.49853376  1
  C  C5  1  0.37511177  0.12464965  0.50170081  1
  C  C6  1  0.56270022  0.06292432  0.25090960  1
  C  C7  1  0.62498238  0.37447297  0.50021506  1
  C  C8  1  0.37373090  0.62571096  0.50110837  1
  C  C9  1  0.12445080  0.87488980  0.49766933  1
  C  C10  1  0.87570129  0.12451343  0.50176309  1
  C  C11  1  0.56218726  0.56266942  0.24890334  1
  C  C12  1  0.31306452  0.81227878  0.24972039  1
  C  C13  1  0.06279116  0.06264911  0.25062725  1
  C  C14  1  0.49950872  0.74882805  0.99889740  1
  C  C15  1  0.24947770  0.99996988  0.00105858  1
  C  C16  1  0.43715117  0.93683142  0.74876086  1
  C  C17  1  0.12492114  0.37471598  0.49960468  1
  C  C18  1  0.87647780  0.62605889  0.50130232  1
  C  C19  1  0.31320238  0.31256285  0.25011142  1
  C  C20  1  0.06236191  0.56240784  0.24935673  1
  C  C21  1  0.81174345  0.81233958  0.24977541  1
  C  C22  1  0.49978462  0.25033050  0.99880036  1
  C  C23  1  0.24978833  0.50002891  0.00013165  1
  C  C24  1  0.99977681  0.75012962  0.99845654  1
  C  C25  1  0.75141270  0.00017594  0.00154683  1
  C  C26  1  0.43754767  0.43756957  0.74874126  1
  C  C27  1  0.18805259  0.68600324  0.75082087  1
  C  C28  1  0.93748049  0.93710076  0.74969992  1
  C  C29  1  0.81190116  0.31262524  0.25026190  1
  C  C30  1  0.99965749  0.24912513  0.99851443  1
  C  C31  1  0.75033726  0.50003135  0.00044659  1
  C  C32  1  0.18799369  0.18894064  0.75058586  1
  C  C33  1  0.93704684  0.43768497  0.74934584  1
  C  C34  1  0.68747031  0.68646102  0.75154365  1
  C  C35  1  0.68731530  0.18928705  0.75081395  1
  Ti  Ti36  1  0.43775440  0.18441593  0.75105002  1
  Ti  Ti37  1  0.18774172  0.43772183  0.74995420  1
  Ti  Ti38  1  0.37585757  0.37575759  0.50036293  1
  Ti  Ti39  1  0.43850517  0.69070261  0.75004983  1
  Ti  Ti40  1  0.93749257  0.18606160  0.74996591  1
  Ti  Ti41  1  0.68705698  0.43840019  0.74932712  1
  Ti  Ti42  1  0.37726468  0.87524528  0.50409978  1
  Ti  Ti43  1  0.12504941  0.12416275  0.50031196  1
  Ti  Ti44  1  0.87426626  0.37567297  0.50019082  1
  Ti  Ti45  1  0.31295629  0.06178106  0.24757493  1
  Ti  Ti46  1  0.06260111  0.31250249  0.25039291  1
  Ti  Ti47  1  0.25065435  0.24806436  0.99898718  1
  Ti  Ti48  1  0.93623390  0.68874264  0.74901550  1
  Ti  Ti49  1  0.12520522  0.62617560  0.50087635  1
  Ti  Ti50  1  0.87426864  0.87483511  0.50222167  1
  Ti  Ti51  1  0.62506164  0.12358221  0.49983311  1
  Ti  Ti52  1  0.31322507  0.56288181  0.25038401  1
  Ti  Ti53  1  0.06281807  0.81301206  0.25113329  1
  Ti  Ti54  1  0.81098642  0.06181094  0.24734012  1
  Ti  Ti55  1  0.56277707  0.31290633  0.25117547  1
  Ti  Ti56  1  0.25070627  0.75148571  0.99880189  1
  Ti  Ti57  1  0.99953853  0.99932837  0.99748151  1
  Ti  Ti58  1  0.74884255  0.24793744  0.99894560  1
  Ti  Ti59  1  0.81179888  0.56276210  0.25012624  1
  Ti  Ti60  1  0.56301522  0.81267013  0.25236717  1
  Ti  Ti61  1  0.99993409  0.50011149  0.00000993  1
  Ti  Ti62  1  0.74839998  0.75155951  0.99782177  1
  Ti  Ti63  1  0.50017537  0.50025494  0.00091372  1
