# generated using pymatgen
data_Ti5Al3N8
_symmetry_space_group_name_H-M   'P 1'
_cell_length_a   8.40197805
_cell_length_b   8.40045697
_cell_length_c   8.90217889
_cell_angle_alpha   103.52425712
_cell_angle_beta   103.67788363
_cell_angle_gamma   90.13931400
_symmetry_Int_Tables_number   1
_chemical_formula_structural   Ti5Al3N8
_chemical_formula_sum   'Ti20 Al12 N32'
_cell_volume   592.46305177
_cell_formula_units_Z   4
loop_
 _symmetry_equiv_pos_site_id
 _symmetry_equiv_pos_as_xyz
  1  'x, y, z'
loop_
 _atom_site_type_symbol
 _atom_site_label
 _atom_site_symmetry_multiplicity
 _atom_site_fract_x
 _atom_site_fract_y
 _atom_site_fract_z
 _atom_site_occupancy
  Al  Al0  1  0.44034163  0.18295994  0.74726014  1
  Al  Al1  1  0.18588475  0.93837534  0.74822195  1
  Al  Al2  1  0.93331406  0.18276125  0.74824739  1
  Al  Al3  1  0.69129606  0.43432411  0.75304887  1
  Al  Al4  1  0.37609635  0.87783491  0.50531482  1
  Al  Al5  1  0.93686159  0.69067497  0.74905484  1
  Al  Al6  1  0.68792114  0.93709418  0.74877799  1
  Al  Al7  1  0.12325904  0.63025587  0.50194804  1
  Al  Al8  1  0.62263949  0.12591488  0.50643646  1
  Al  Al9  1  0.24420806  0.75215920  0.99455518  1
  Al  Al10  1  0.81554374  0.56518201  0.24803549  1
  Al  Al11  1  0.75526613  0.74628400  0.99603532  1
  N  N12  1  0.61948750  0.88167416  0.50828241  1
  N  N13  1  0.38147261  0.11947196  0.50733556  1
  N  N14  1  0.56614077  0.06611890  0.26214948  1
  N  N15  1  0.62581679  0.37086594  0.50975835  1
  N  N16  1  0.36870384  0.63596267  0.50281211  1
  N  N17  1  0.13281820  0.87278302  0.50643295  1
  N  N18  1  0.86903379  0.12582304  0.50901702  1
  N  N19  1  0.57419625  0.56165783  0.25284748  1
  N  N20  1  0.31165118  0.81201568  0.24820613  1
  N  N21  1  0.06188859  0.06340743  0.25090304  1
  N  N22  1  0.49587875  0.74976489  0.99732280  1
  N  N23  1  0.24809288  0.98832309  0.99060109  1
  N  N24  1  0.43744384  0.94123624  0.74514547  1
  N  N25  1  0.12656415  0.38596111  0.50394647  1
  N  N26  1  0.88078951  0.62906164  0.50178583  1
  N  N27  1  0.31328996  0.31392443  0.25118172  1
  N  N28  1  0.05671274  0.56557895  0.25815960  1
  N  N29  1  0.81046439  0.80156408  0.23849959  1
  N  N30  1  0.49742954  0.24527044  0.98938451  1
  N  N31  1  0.24933049  0.51206927  0.99790368  1
  N  N32  1  0.00100085  0.74770001  0.99192725  1
  N  N33  1  0.74712747  0.98614880  0.98988154  1
  N  N34  1  0.44567494  0.42808094  0.74946303  1
  N  N35  1  0.18105098  0.69320234  0.74908528  1
  N  N36  1  0.93526005  0.93721079  0.74744056  1
  N  N37  1  0.81304417  0.32344543  0.24983018  1
  N  N38  1  0.99769337  0.24722192  0.98961524  1
  N  N39  1  0.75129358  0.50763088  0.99936406  1
  N  N40  1  0.18507254  0.18038573  0.74870265  1
  N  N41  1  0.93100182  0.43620090  0.75080668  1
  N  N42  1  0.69471245  0.68693361  0.75466268  1
  N  N43  1  0.68819480  0.18541062  0.74691753  1
  Ti  Ti44  1  0.18724235  0.43226329  0.75152547  1
  Ti  Ti45  1  0.37292922  0.37822233  0.49728327  1
  Ti  Ti46  1  0.43870421  0.68399195  0.75271146  1
  Ti  Ti47  1  0.12189911  0.12766214  0.49360464  1
  Ti  Ti48  1  0.87450758  0.37116363  0.49531950  1
  Ti  Ti49  1  0.31167418  0.06353717  0.24867389  1
  Ti  Ti50  1  0.06286565  0.30848814  0.25203354  1
  Ti  Ti51  1  0.25334000  0.25358521  0.00547255  1
  Ti  Ti52  1  0.87130822  0.87814027  0.49211628  1
  Ti  Ti53  1  0.31403448  0.56151747  0.24793547  1
  Ti  Ti54  1  0.06369543  0.81960363  0.25074006  1
  Ti  Ti55  1  0.81240474  0.06151506  0.25045349  1
  Ti  Ti56  1  0.56398262  0.30831006  0.24929770  1
  Ti  Ti57  1  0.00154817  0.00683440  0.00709581  1
  Ti  Ti58  1  0.75014349  0.24896682  0.00903682  1
  Ti  Ti59  1  0.62231828  0.62045306  0.49363266  1
  Ti  Ti60  1  0.56108639  0.81436341  0.24678990  1
  Ti  Ti61  1  0.00725794  0.49453022  0.00278123  1
  Ti  Ti62  1  0.50186962  0.00101012  0.00417930  1
  Ti  Ti63  1  0.49622351  0.49991420  0.00300846  1
