# generated using pymatgen
data_Ti3Al5N8
_symmetry_space_group_name_H-M   'P 1'
_cell_length_a   8.30868877
_cell_length_b   8.30871597
_cell_length_c   8.82245892
_cell_angle_alpha   103.55409262
_cell_angle_beta   103.46477754
_cell_angle_gamma   90.33510900
_symmetry_Int_Tables_number   1
_chemical_formula_structural   Ti3Al5N8
_chemical_formula_sum   'Ti12 Al20 N32'
_cell_volume   574.63989859
_cell_formula_units_Z   4
loop_
 _symmetry_equiv_pos_site_id
 _symmetry_equiv_pos_as_xyz
  1  'x, y, z'
loop_
 _atom_site_type_symbol
 _atom_site_label
 _atom_site_symmetry_multiplicity
 _atom_site_fract_x
 _atom_site_fract_y
 _atom_site_fract_z
 _atom_site_occupancy
  Ti  Ti0  1  0.44328156  0.17976698  0.74443335  1
  Ti  Ti1  1  0.18546713  0.93222992  0.74826093  1
  Ti  Ti2  1  0.92981914  0.18193488  0.74587085  1
  Ti  Ti3  1  0.69093397  0.43435188  0.74978329  1
  Ti  Ti4  1  0.37741061  0.87958328  0.50565634  1
  Ti  Ti5  1  0.93972602  0.69000403  0.75033646  1
  Ti  Ti6  1  0.68742874  0.93993687  0.74867257  1
  Ti  Ti7  1  0.12607479  0.63716596  0.50880474  1
  Ti  Ti8  1  0.62082316  0.12319211  0.51276873  1
  Ti  Ti9  1  0.24178173  0.75303094  0.98785409  1
  Ti  Ti10  1  0.81729741  0.56931103  0.25059066  1
  Ti  Ti11  1  0.75331716  0.74434608  0.98916219  1
  N  N12  1  0.63096158  0.86478636  0.49002265  1
  N  N13  1  0.36258708  0.13245147  0.49185666  1
  N  N14  1  0.55900424  0.05946641  0.24341888  1
  N  N15  1  0.62512129  0.37745796  0.49149682  1
  N  N16  1  0.38017083  0.61736016  0.49770157  1
  N  N17  1  0.11294630  0.88445374  0.49071720  1
  N  N18  1  0.87762573  0.12470706  0.49389079  1
  N  N19  1  0.55646633  0.56234776  0.24469898  1
  N  N20  1  0.31337786  0.81332950  0.25136666  1
  N  N21  1  0.06235698  0.06270038  0.24730855  1
  N  N22  1  0.50133155  0.74851743  0.00126455  1
  N  N23  1  0.24943434  0.01092009  0.00815651  1
  N  N24  1  0.43864293  0.92982302  0.76135901  1
  N  N25  1  0.12105620  0.36929681  0.49685093  1
  N  N26  1  0.86718756  0.62373119  0.49662574  1
  N  N27  1  0.31260182  0.31467113  0.25209712  1
  N  N28  1  0.06684715  0.56265429  0.24276308  1
  N  N29  1  0.81311142  0.81920441  0.25410801  1
  N  N30  1  0.50238522  0.25210285  0.00886669  1
  N  N31  1  0.24998445  0.49291900  0.00043080  1
  N  N32  1  0.00211508  0.75265385  0.00822126  1
  N  N33  1  0.75434337  0.00806105  0.00912829  1
  N  N34  1  0.43290115  0.44161142  0.75088245  1
  N  N35  1  0.19794815  0.67502887  0.74854400  1
  N  N36  1  0.93865440  0.93813457  0.75241326  1
  N  N37  1  0.81399799  0.30940390  0.25308409  1
  N  N38  1  0.00239273  0.25254555  0.00893809  1
  N  N39  1  0.75229526  0.49292956  0.00180715  1
  N  N40  1  0.18864775  0.19420722  0.75160561  1
  N  N41  1  0.94581621  0.43635758  0.75061857  1
  N  N42  1  0.67571414  0.68286702  0.73934880  1
  N  N43  1  0.69147419  0.19116017  0.76562087  1
  Al  Al44  1  0.18907257  0.43111796  0.74813650  1
  Al  Al45  1  0.37160456  0.37653322  0.49668478  1
  Al  Al46  1  0.43925319  0.68245957  0.74946904  1
  Al  Al47  1  0.12278063  0.12744546  0.49840418  1
  Al  Al48  1  0.87499050  0.37243966  0.49497636  1
  Al  Al49  1  0.31288257  0.06446616  0.24975255  1
  Al  Al50  1  0.06600163  0.31183344  0.25298344  1
  Al  Al51  1  0.25150211  0.25029375  0.00073783  1
  Al  Al52  1  0.87167235  0.87695675  0.49374617  1
  Al  Al53  1  0.31287713  0.56274197  0.24885712  1
  Al  Al54  1  0.06691082  0.81790643  0.25043518  1
  Al  Al55  1  0.81072894  0.06266979  0.25104968  1
  Al  Al56  1  0.56037887  0.31074156  0.25077680  1
  Al  Al57  1  0.00093933  0.00925273  0.00799328  1
  Al  Al58  1  0.75128944  0.25089831  0.00896624  1
  Al  Al59  1  0.62200424  0.62260414  0.49585355  1
  Al  Al60  1  0.55824456  0.81341313  0.24635275  1
  Al  Al61  1  0.00691932  0.49362259  0.00154233  1
  Al  Al62  1  0.50188504  0.00239157  0.00474955  1
  Al  Al63  1  0.49519956  0.49749607  0.00112485  1
