# generated using pymatgen
data_TiAl7C8
_symmetry_space_group_name_H-M   'P 1'
_cell_length_a   8.57858873
_cell_length_b   8.56355085
_cell_length_c   9.08843113
_cell_angle_alpha   103.81886393
_cell_angle_beta   103.65318391
_cell_angle_gamma   90.01853887
_symmetry_Int_Tables_number   1
_chemical_formula_structural   TiAl7C8
_chemical_formula_sum   'Ti4 Al28 C32'
_cell_volume   628.88083793
_cell_formula_units_Z   4
loop_
 _symmetry_equiv_pos_site_id
 _symmetry_equiv_pos_as_xyz
  1  'x, y, z'
loop_
 _atom_site_type_symbol
 _atom_site_label
 _atom_site_symmetry_multiplicity
 _atom_site_fract_x
 _atom_site_fract_y
 _atom_site_fract_z
 _atom_site_occupancy
  Ti  Ti0  1  0.18568778  0.93547487  0.74684730  1
  Ti  Ti1  1  0.68954857  0.94010609  0.75076946  1
  Ti  Ti2  1  0.62451433  0.62530399  0.50079926  1
  Ti  Ti3  1  0.50083854  0.99976672  0.00178216  1
  C  C4  1  0.62516151  0.87494879  0.50046103  1
  C  C5  1  0.37496050  0.12642204  0.49974586  1
  C  C6  1  0.56262455  0.06293110  0.25168813  1
  C  C7  1  0.62482870  0.37430964  0.49814208  1
  C  C8  1  0.37362431  0.62331565  0.49897858  1
  C  C9  1  0.12512740  0.87471948  0.49831162  1
  C  C10  1  0.87484091  0.12616716  0.49883565  1
  C  C11  1  0.56268341  0.56228091  0.24972717  1
  C  C12  1  0.31134459  0.81245123  0.25050924  1
  C  C13  1  0.06217960  0.06285804  0.24802944  1
  C  C14  1  0.50000282  0.74781914  0.00089631  1
  C  C15  1  0.25006928  0.99954186  0.99850495  1
  C  C16  1  0.43818940  0.93910566  0.75329510  1
  C  C17  1  0.12445868  0.37511396  0.49923539  1
  C  C18  1  0.87545070  0.62280241  0.49871680  1
  C  C19  1  0.31086437  0.31278596  0.24889216  1
  C  C20  1  0.06261239  0.56234556  0.25160125  1
  C  C21  1  0.81400488  0.81240430  0.25099270  1
  C  C22  1  0.49999885  0.25236104  0.00217173  1
  C  C23  1  0.24992727  0.50013014  0.00191362  1
  C  C24  1  0.99996523  0.74899576  0.00000934  1
  C  C25  1  0.74975670  0.99996485  -0.00008560  1
  C  C26  1  0.43645921  0.43666883  0.74977167  1
  C  C27  1  0.18700572  0.68504063  0.74944265  1
  C  C28  1  0.93846343  0.93848363  0.75126906  1
  C  C29  1  0.81372255  0.31292456  0.24935882  1
  C  C30  1  0.00061647  0.25110877  0.00100252  1
  C  C31  1  0.75032942  0.50057644  0.00045607  1
  C  C32  1  0.18739906  0.18819018  0.75039491  1
  C  C33  1  0.93784865  0.43647395  0.74928333  1
  C  C34  1  0.68769162  0.68737067  0.74923670  1
  C  C35  1  0.68779816  0.18945220  0.74983740  1
  Al  Al36  1  0.43689155  0.18762406  0.75134938  1
  Al  Al37  1  0.18709755  0.43670929  0.75040412  1
  Al  Al38  1  0.37549611  0.37452973  0.49915983  1
  Al  Al39  1  0.43763588  0.68766022  0.75064324  1
  Al  Al40  1  0.93835614  0.18798742  0.74960532  1
  Al  Al41  1  0.68740346  0.43678904  0.74872365  1
  Al  Al42  1  0.37500114  0.87557435  0.50008338  1
  Al  Al43  1  0.12450885  0.12549780  0.49910525  1
  Al  Al44  1  0.87384482  0.37429285  0.49853857  1
  Al  Al45  1  0.31213554  0.06280240  0.24973136  1
  Al  Al46  1  0.06222259  0.31261019  0.24917681  1
  Al  Al47  1  0.25023872  0.24988278  0.00024423  1
  Al  Al48  1  0.93745871  0.68659783  0.75001187  1
  Al  Al49  1  0.12478635  0.62405728  0.49991546  1
  Al  Al50  1  0.87531734  0.87522537  0.50004974  1
  Al  Al51  1  0.62531176  0.12605202  0.49982777  1
  Al  Al52  1  0.31244521  0.56264601  0.25094414  1
  Al  Al53  1  0.06250218  0.81216603  0.24943542  1
  Al  Al54  1  0.81267314  0.06257563  0.24973269  1
  Al  Al55  1  0.56244491  0.31292264  0.24969800  1
  Al  Al56  1  0.24981024  0.74989814  0.00071613  1
  Al  Al57  1  0.00013776  0.99924897  0.99882856  1
  Al  Al58  1  0.74970486  0.25052872  0.99983656  1
  Al  Al59  1  0.81283521  0.56265142  0.25077864  1
  Al  Al60  1  0.56251015  0.81211502  0.25035376  1
  Al  Al61  1  0.00048057  0.50045875  0.00080278  1
  Al  Al62  1  0.75045223  0.75005477  0.00044511  1
  Al  Al63  1  0.49969744  0.50012505  0.00103431  1
