# generated using pymatgen
data_CrFeCoReNi
_symmetry_space_group_name_H-M   'P 1'
_cell_length_a   5.07417194
_cell_length_b   6.67840060
_cell_length_c   7.33653289
_cell_angle_alpha   106.16805150
_cell_angle_beta   90.27875793
_cell_angle_gamma   81.01022079
_symmetry_Int_Tables_number   1
_chemical_formula_structural   CrFeCoReNi
_chemical_formula_sum   'Cr4 Fe4 Co4 Re4 Ni4'
_cell_volume   235.65377138
_cell_formula_units_Z   4
loop_
 _symmetry_equiv_pos_site_id
 _symmetry_equiv_pos_as_xyz
  1  'x, y, z'
loop_
 _atom_site_type_symbol
 _atom_site_label
 _atom_site_symmetry_multiplicity
 _atom_site_fract_x
 _atom_site_fract_y
 _atom_site_fract_z
 _atom_site_occupancy
  Co  Co0  1  0.59590024  0.60803871  0.90524466  1
  Co  Co1  1  0.80368682  0.79625153  0.70712716  1
  Co  Co2  1  0.89593063  0.40198841  0.60177625  1
  Co  Co3  1  0.30267444  0.79324951  0.70720445  1
  Cr  Cr4  1  0.66917442  0.18921083  0.29723785  1
  Cr  Cr5  1  0.16437927  0.19456469  0.30000613  1
  Cr  Cr6  1  0.51406303  0.99926481  0.98964643  1
  Cr  Cr7  1  0.01536750  0.01421858  0.99076391  1
  Fe  Fe8  1  0.20335543  0.19732013  0.79743144  1
  Fe  Fe9  1  0.31585329  0.81094904  0.19264392  1
  Fe  Fe10  1  0.00548254  0.00273990  0.50985298  1
  Fe  Fe11  1  0.39335750  0.39477933  0.09005161  1
  Ni  Ni12  1  0.71030312  0.20170243  0.80133235  1
  Ni  Ni13  1  0.39533607  0.40243423  0.60475883  1
  Ni  Ni14  1  0.81147430  0.80109679  0.19621774  1
  Ni  Ni15  1  0.89134224  0.40088581  0.09669229  1
  Re  Re16  1  0.09724473  0.59981037  0.89921909  1
  Re  Re17  1  0.60577594  0.59150620  0.39816837  1
  Re  Re18  1  0.50288481  0.00095926  0.51554365  1
  Re  Re19  1  0.10641367  0.59902944  0.39908089  1
