# generated using pymatgen
data_HfCrFeCoNi
_symmetry_space_group_name_H-M   'P 1'
_cell_length_a   5.94318606
_cell_length_b   6.39146783
_cell_length_c   8.05057233
_cell_angle_alpha   106.38129588
_cell_angle_beta   98.45610780
_cell_angle_gamma   111.51657737
_symmetry_Int_Tables_number   1
_chemical_formula_structural   HfCrFeCoNi
_chemical_formula_sum   'Hf4 Cr4 Fe4 Co4 Ni4'
_cell_volume   261.97700342
_cell_formula_units_Z   4
loop_
 _symmetry_equiv_pos_site_id
 _symmetry_equiv_pos_as_xyz
  1  'x, y, z'
loop_
 _atom_site_type_symbol
 _atom_site_label
 _atom_site_symmetry_multiplicity
 _atom_site_fract_x
 _atom_site_fract_y
 _atom_site_fract_z
 _atom_site_occupancy
  Co  Co0  1  0.73813479  0.80976117  0.61581276  1
  Co  Co1  1  0.24559321  0.61592934  0.52508542  1
  Co  Co2  1  0.49052594  0.57613401  0.31229029  1
  Co  Co3  1  0.99429311  0.38354988  0.19960332  1
  Cr  Cr4  1  0.21801730  0.36364574  0.93528521  1
  Cr  Cr5  1  0.01468634  0.81174487  0.44499329  1
  Cr  Cr6  1  0.52430989  0.03628582  0.53970682  1
  Cr  Cr7  1  0.24621267  0.22660764  0.37120931  1
  Fe  Fe8  1  0.25272567  0.02962155  0.74818794  1
  Fe  Fe9  1  0.46800854  0.37146722  0.67481178  1
  Fe  Fe10  1  0.00156939  0.19075237  0.58989829  1
  Fe  Fe11  1  0.49324724  0.18563554  0.10235913  1
  Hf  Hf12  1  0.52779995  0.80623238  0.86443700  1
  Hf  Hf13  1  0.96404210  0.59898000  0.76124982  1
  Hf  Hf14  1  0.29371545  0.80459740  0.17923871  1
  Hf  Hf15  1  0.72673717  0.58063995  0.07918810  1
  Ni  Ni16  1  0.76667429  0.21893834  0.84905969  1
  Ni  Ni17  1  0.73057065  0.37406885  0.42448618  1
  Ni  Ni18  1  0.78300447  0.00858087  0.26080457  1
  Ni  Ni19  1  0.02013184  0.00682704  0.02229237  1
