# generated using pymatgen
data_HfMnFeCoNi
_symmetry_space_group_name_H-M   'P 1'
_cell_length_a   7.43329497
_cell_length_b   7.38833465
_cell_length_c   7.12884117
_cell_angle_alpha   96.66497666
_cell_angle_beta   103.32894621
_cell_angle_gamma   131.12953102
_symmetry_Int_Tables_number   1
_chemical_formula_structural   HfMnFeCoNi
_chemical_formula_sum   'Hf4 Mn4 Fe4 Co4 Ni4'
_cell_volume   267.12788913
_cell_formula_units_Z   4
loop_
 _symmetry_equiv_pos_site_id
 _symmetry_equiv_pos_as_xyz
  1  'x, y, z'
loop_
 _atom_site_type_symbol
 _atom_site_label
 _atom_site_symmetry_multiplicity
 _atom_site_fract_x
 _atom_site_fract_y
 _atom_site_fract_z
 _atom_site_occupancy
  Co  Co0  1  0.77290455  0.60528936  0.40008022  1
  Co  Co1  1  0.46712322  0.19454183  0.11472831  1
  Co  Co2  1  0.34949930  0.45195131  0.24514364  1
  Co  Co3  1  0.10423665  0.71728712  0.84510111  1
  Fe  Fe4  1  0.92109426  0.28738256  0.20602101  1
  Fe  Fe5  1  0.78693745  0.30074234  0.48989192  1
  Fe  Fe6  1  0.68414020  0.58492273  0.69862210  1
  Fe  Fe7  1  -0.00983404  0.95621579  0.00127109  1
  Hf  Hf8  1  0.60501661  0.21391076  0.81422573  1
  Hf  Hf9  1  0.28016373  0.11607491  0.39238413  1
  Hf  Hf10  1  0.39592425  0.82595727  0.20388160  1
  Hf  Hf11  1  0.07805213  0.33228409  0.85732569  1
  Mn  Mn12  1  0.63400820  0.84854071  0.57567911  1
  Mn  Mn13  1  0.58450305  0.85405217  0.89901572  1
  Mn  Mn14  1  0.11525925  0.01248197  0.71101444  1
  Mn  Mn15  1  0.19516012  0.71160533  0.53850229  1
  Ni  Ni16  1  0.94133352  0.62277888  0.14980120  1
  Ni  Ni17  1  0.81874058  0.93433377  0.30443657  1
  Ni  Ni18  1  0.54596543  0.52761191  -0.00931294  1
  Ni  Ni19  1  0.22977152  0.40203518  0.56218708  1
