# generated using pymatgen
data_MnFeCoNiPd
_symmetry_space_group_name_H-M   'P 1'
_cell_length_a   5.16655971
_cell_length_b   5.80836716
_cell_length_c   8.90102223
_cell_angle_alpha   97.59534671
_cell_angle_beta   106.88317031
_cell_angle_gamma   103.18298225
_symmetry_Int_Tables_number   1
_chemical_formula_structural   MnFeCoNiPd
_chemical_formula_sum   'Mn4 Fe4 Co4 Ni4 Pd4'
_cell_volume   243.15578767
_cell_formula_units_Z   4
loop_
 _symmetry_equiv_pos_site_id
 _symmetry_equiv_pos_as_xyz
  1  'x, y, z'
loop_
 _atom_site_type_symbol
 _atom_site_label
 _atom_site_symmetry_multiplicity
 _atom_site_fract_x
 _atom_site_fract_y
 _atom_site_fract_z
 _atom_site_occupancy
  Co  Co0  1  0.68038744  0.20125640  0.79354917  1
  Co  Co1  1  0.20963376  0.21630018  0.81188330  1
  Co  Co2  1  0.48377379  0.00225258  0.50021984  1
  Co  Co3  1  0.01174382  0.99704504  0.00503878  1
  Fe  Fe4  1  0.59646868  0.59213224  0.89639449  1
  Fe  Fe5  1  0.11438248  0.59777523  0.40323714  1
  Fe  Fe6  1  0.39173490  0.40256431  0.09114286  1
  Fe  Fe7  1  0.48967601  0.99056228  0.99213761  1
  Mn  Mn8  1  0.29398314  0.79620591  0.69845191  1
  Mn  Mn9  1  0.80769392  0.79994702  0.19470776  1
  Mn  Mn10  1  0.29101601  0.80085814  0.19246641  1
  Mn  Mn11  1  0.01652364  0.01696196  0.50783400  1
  Ni  Ni12  1  0.90351212  0.39444602  0.60790533  1
  Ni  Ni13  1  0.10762490  0.60110589  0.90169949  1
  Ni  Ni14  1  0.39529798  0.39669201  0.60098948  1
  Ni  Ni15  1  0.20255082  0.19066249  0.30091117  1
  Pd  Pd16  1  0.80212322  0.81121830  0.70810601  1
  Pd  Pd17  1  0.60477641  0.60629577  0.39661437  1
  Pd  Pd18  1  0.69456513  0.18874762  0.30032800  1
  Pd  Pd19  1  0.90253187  0.39697061  0.09638290  1
