# generated using pymatgen
data_Hf5C4N
_symmetry_space_group_name_H-M   'P 1'
_cell_length_a   4.62065348
_cell_length_b   5.66805840
_cell_length_c   5.66805840
_cell_angle_alpha   99.56355406
_cell_angle_beta   114.05444880
_cell_angle_gamma   65.94555120
_symmetry_Int_Tables_number   1
_chemical_formula_structural   Hf5C4N
_chemical_formula_sum   'Hf5 C4 N1'
_cell_volume   123.78396291
_cell_formula_units_Z   1
loop_
 _symmetry_equiv_pos_site_id
 _symmetry_equiv_pos_as_xyz
  1  'x, y, z'
loop_
 _atom_site_type_symbol
 _atom_site_label
 _atom_site_symmetry_multiplicity
 _atom_site_fract_x
 _atom_site_fract_y
 _atom_site_fract_z
 _atom_site_occupancy
  C  C0  1  0.89945582  0.79910776  0.59801942  1
  C  C1  1  0.50143642  0.99801942  0.00089224  1
  C  C2  1  0.09856358  0.20198058  0.39910776  1
  C  C3  1  0.70054418  0.40089224  0.80198058  1
  N  N4  1  0.30000000  0.60000000  0.20000000  1
  Hf  Hf5  1  0.99911763  0.00178346  0.00001871  1
  Hf  Hf6  1  0.60088237  0.19821654  0.39998129  1
  Hf  Hf7  1  0.19909892  0.40001871  0.79821654  1
  Hf  Hf8  1  0.80000000  0.60000000  0.20000000  1
  Hf  Hf9  1  0.40090108  0.79998129  0.60178346  1
