# generated using pymatgen
data_Hf4C3N
_symmetry_space_group_name_H-M   'P 1'
_cell_length_a   6.53889354
_cell_length_b   7.30250729
_cell_length_c   8.65090001
_cell_angle_alpha   85.18290075
_cell_angle_beta   79.12447879
_cell_angle_gamma   77.08911565
_symmetry_Int_Tables_number   1
_chemical_formula_structural   Hf4C3N
_chemical_formula_sum   'Hf16 C12 N4'
_cell_volume   395.03079922
_cell_formula_units_Z   4
loop_
 _symmetry_equiv_pos_site_id
 _symmetry_equiv_pos_as_xyz
  1  'x, y, z'
loop_
 _atom_site_type_symbol
 _atom_site_label
 _atom_site_symmetry_multiplicity
 _atom_site_fract_x
 _atom_site_fract_y
 _atom_site_fract_z
 _atom_site_occupancy
  C  C0  1  0.09079271  0.69082839  0.93955956  1
  C  C1  1  0.59518650  0.68742737  0.93888357  1
  C  C2  1  0.96765483  0.43691546  0.68982994  1
  C  C3  1  0.46936220  0.43551581  0.68963518  1
  C  C4  1  0.27947568  0.06188407  0.81644011  1
  C  C5  1  0.15605893  0.81339519  0.56010924  1
  C  C6  1  0.65667403  0.81470382  0.56055211  1
  C  C7  1  0.03122095  0.56242141  0.31008407  1
  C  C8  1  0.53202618  0.56375521  0.31062158  1
  C  C9  1  0.40758914  0.31080516  0.06289393  1
  C  C10  1  0.34456406  0.18612534  0.43566018  1
  C  C11  1  0.84438190  0.18639332  0.43563032  1
  Hf  Hf12  1  0.68599125  0.37719530  0.87331451  1
  Hf  Hf13  1  0.18859590  0.37530752  0.87350749  1
  Hf  Hf14  1  0.56154763  0.12546900  0.62355189  1
  Hf  Hf15  1  0.06341528  0.12563083  0.62427845  1
  Hf  Hf16  1  0.87543376  0.74845396  0.74940481  1
  Hf  Hf17  1  0.37527906  0.75024476  0.74931471  1
  Hf  Hf18  1  0.74986986  0.49958031  0.50002778  1
  Hf  Hf19  1  0.25012474  0.50027509  0.50048554  1
  Hf  Hf20  1  0.62346136  0.25002483  0.25168776  1
  Hf  Hf21  1  0.12547456  0.25096473  0.25265177  1
  Hf  Hf22  1  0.49876616  0.00081332  0.99788150  1
  Hf  Hf23  1  0.00325820  0.99840318  0.99696573  1
  Hf  Hf24  1  0.93727728  0.87423654  0.37803528  1
  Hf  Hf25  1  0.43671313  0.87364592  0.37822964  1
  Hf  Hf26  1  0.81186433  0.62623332  0.12548439  1
  Hf  Hf27  1  0.31291308  0.62357688  0.12521103  1
  N  N28  1  0.78118526  0.06213740  0.81821848  1
  N  N29  1  0.90566153  0.30983274  0.06313191  1
  N  N30  1  0.21779791  0.94034188  0.18411191  1
  N  N31  1  0.72038264  0.93746187  0.18460557  1
