# generated using pymatgen
data_HfTa3N4
_symmetry_space_group_name_H-M   'P 1'
_cell_length_a   8.33744203
_cell_length_b   8.33706824
_cell_length_c   5.46935156
_cell_angle_alpha   103.37098250
_cell_angle_beta   103.58558247
_cell_angle_gamma   97.34127401
_symmetry_Int_Tables_number   1
_chemical_formula_structural   HfTa3N4
_chemical_formula_sum   'Hf4 Ta12 N16'
_cell_volume   352.79100244
_cell_formula_units_Z   4
loop_
 _symmetry_equiv_pos_site_id
 _symmetry_equiv_pos_as_xyz
  1  'x, y, z'
loop_
 _atom_site_type_symbol
 _atom_site_label
 _atom_site_symmetry_multiplicity
 _atom_site_fract_x
 _atom_site_fract_y
 _atom_site_fract_z
 _atom_site_occupancy
  Hf  Hf0  1  0.37936567  0.12244466  0.99993507  1
  Hf  Hf1  1  0.24953696  0.25338488  0.50322793  1
  Hf  Hf2  1  0.12536340  0.87219181  0.49404379  1
  Hf  Hf3  1  0.87252285  0.12951205  0.49510949  1
  N  N4  1  0.52059607  0.75822476  0.23497743  1
  N  N5  1  0.24884124  0.99815533  0.24596357  1
  N  N6  1  0.37135628  0.37228051  0.25639616  1
  N  N7  1  0.10855223  0.61674178  0.25878213  1
  N  N8  1  0.86796193  0.86927053  0.25643567  1
  N  N9  1  0.00307818  0.25464784  0.23715811  1
  N  N10  1  0.75987980  0.52126075  0.24600980  1
  N  N11  1  0.61785274  0.10723771  0.25405178  1
  N  N12  1  0.37093934  0.86499232  0.76175977  1
  N  N13  1  0.50545750  0.25244522  0.74168162  1
  N  N14  1  0.26004416  0.50964822  0.73543799  1
  N  N15  1  0.01414923  0.75202844  0.74992879  1
  N  N16  1  0.75322372  0.01944024  0.75046306  1
  N  N17  1  0.12373817  0.12544692  0.75411805  1
  N  N18  1  0.86379992  0.37066528  0.77052176  1
  N  N19  1  0.61006524  0.60761791  0.74855569  1
  Ta  Ta20  1  0.12681457  0.38689463  0.98978461  1
  Ta  Ta21  1  0.25545630  0.73827233  0.02161532  1
  Ta  Ta22  1  0.99140587  0.99406132  0.99850403  1
  Ta  Ta23  1  0.74290714  0.25809487  0.03102862  1
  Ta  Ta24  1  0.87363583  0.63268396  0.97411437  1
  Ta  Ta25  1  0.63456484  0.87138716  0.96957436  1
  Ta  Ta26  1  0.49645225  0.49604857  0.01712284  1
  Ta  Ta27  1  0.37701638  0.63415298  0.47568992  1
  Ta  Ta28  1  0.63385701  0.37476567  0.47769892  1
  Ta  Ta29  1  0.99301013  0.49371330  0.51516813  1
  Ta  Ta30  1  0.75057537  0.75371089  0.53017401  1
  Ta  Ta31  1  0.49797966  0.98857716  0.50496721  1
