# generated using pymatgen
data_Hf3TaN4
_symmetry_space_group_name_H-M   'P 1'
_cell_length_a   8.44143150
_cell_length_b   8.41508769
_cell_length_c   5.51998625
_cell_angle_alpha   102.54760148
_cell_angle_beta   102.80405344
_cell_angle_gamma   98.27785612
_symmetry_Int_Tables_number   1
_chemical_formula_structural   Hf3TaN4
_chemical_formula_sum   'Hf12 Ta4 N16'
_cell_volume   365.54979954
_cell_formula_units_Z   4
loop_
 _symmetry_equiv_pos_site_id
 _symmetry_equiv_pos_as_xyz
  1  'x, y, z'
loop_
 _atom_site_type_symbol
 _atom_site_label
 _atom_site_symmetry_multiplicity
 _atom_site_fract_x
 _atom_site_fract_y
 _atom_site_fract_z
 _atom_site_occupancy
  Ta  Ta0  1  0.37696192  0.12740804  0.98560305  1
  Ta  Ta1  1  0.24455156  0.24038626  0.50750362  1
  Ta  Ta2  1  0.12692336  0.88355040  0.50490198  1
  Ta  Ta3  1  0.87727741  0.12499626  0.49598200  1
  N  N4  1  0.49973702  0.75023068  0.25063673  1
  N  N5  1  0.25343503  0.00330877  0.24295408  1
  N  N6  1  0.37079470  0.36934876  0.25446226  1
  N  N7  1  0.12593754  0.62720124  0.25072937  1
  N  N8  1  0.87556396  0.87477709  0.24877626  1
  N  N9  1  0.00228140  0.25195598  0.24835658  1
  N  N10  1  0.74992835  0.49936498  0.25171197  1
  N  N11  1  0.62303262  0.12361680  0.24978263  1
  N  N12  1  0.37487555  0.87285585  0.74944599  1
  N  N13  1  0.50251596  0.25167498  0.74394911  1
  N  N14  1  0.24956237  0.49972284  0.74937447  1
  N  N15  1  0.00083123  0.75153014  0.75083586  1
  N  N16  1  0.75079071  0.00080217  0.75018446  1
  N  N17  1  0.11984918  0.12304218  0.75981773  1
  N  N18  1  0.87533369  0.37475887  0.75085792  1
  N  N19  1  0.62564599  0.62578056  0.74772598  1
  Hf  Hf20  1  0.12718783  0.37302043  0.99589377  1
  Hf  Hf21  1  0.24910693  0.75345127  0.99970216  1
  Hf  Hf22  1  0.00231315  0.00167094  0.01177754  1
  Hf  Hf23  1  0.75016712  0.24787343  -0.00056225  1
  Hf  Hf24  1  0.87440397  0.62485553  0.00346074  1
  Hf  Hf25  1  0.62449985  0.87636662  0.00241777  1
  Hf  Hf26  1  0.49786498  0.49586981  0.99642246  1
  Hf  Hf27  1  0.37419805  0.62380287  0.49986019  1
  Hf  Hf28  1  0.62419926  0.37293553  0.49575924  1
  Hf  Hf29  1  0.00143435  0.49767041  0.49971562  1
  Hf  Hf30  1  0.75401187  0.75456102  0.49978063  1
  Hf  Hf31  1  0.49478307  0.00160929  0.50218007  1
