# generated using pymatgen
data_Hf3TaC4
_symmetry_space_group_name_H-M   'P 1'
_cell_length_a   8.60822948
_cell_length_b   8.60582322
_cell_length_c   5.63233761
_cell_angle_alpha   102.66846939
_cell_angle_beta   102.64631544
_cell_angle_gamma   98.16711089
_symmetry_Int_Tables_number   1
_chemical_formula_structural   Hf3TaC4
_chemical_formula_sum   'Hf12 Ta4 C16'
_cell_volume   389.21698695
_cell_formula_units_Z   4
loop_
 _symmetry_equiv_pos_site_id
 _symmetry_equiv_pos_as_xyz
  1  'x, y, z'
loop_
 _atom_site_type_symbol
 _atom_site_label
 _atom_site_symmetry_multiplicity
 _atom_site_fract_x
 _atom_site_fract_y
 _atom_site_fract_z
 _atom_site_occupancy
  Ta  Ta0  1  0.37448327  0.12460090  0.00130059  1
  Ta  Ta1  1  0.24926970  0.24950023  0.50225497  1
  Ta  Ta2  1  0.12542155  0.87560816  0.49844368  1
  Ta  Ta3  1  0.87522044  0.12531022  0.50022822  1
  C  C4  1  0.49971854  0.75061490  0.24948388  1
  C  C5  1  0.24980921  0.00367404  0.25354630  1
  C  C6  1  0.37228068  0.36823446  0.25011751  1
  C  C7  1  0.12515613  0.62924097  0.25388109  1
  C  C8  1  0.87984548  0.87982990  0.25650022  1
  C  C9  1  0.00236185  0.24771627  0.25689716  1
  C  C10  1  0.74993899  0.49934869  0.24976299  1
  C  C11  1  0.62436109  0.12485469  0.25001827  1
  C  C12  1  0.37124726  0.87944743  0.74990508  1
  C  C13  1  0.49346381  0.24704088  0.75017653  1
  C  C14  1  0.24937768  0.49479258  0.74637205  1
  C  C15  1  0.00324595  0.75339311  0.74559001  1
  C  C16  1  0.75249976  0.00272457  0.74625353  1
  C  C17  1  0.12675573  0.12370401  0.74463805  1
  C  C18  1  0.87522647  0.37029933  0.74589669  1
  C  C19  1  0.62483023  0.62489118  0.75027190  1
  Hf  Hf20  1  0.12452897  0.37364249  0.00076601  1
  Hf  Hf21  1  0.25037040  0.75060119  0.99977745  1
  Hf  Hf22  1  0.00150994  0.00111827  0.99855536  1
  Hf  Hf23  1  0.74954478  0.24989836  0.00068251  1
  Hf  Hf24  1  0.87551535  0.62590787  0.99909213  1
  Hf  Hf25  1  0.62578002  0.87572765  0.99901664  1
  Hf  Hf26  1  0.49939050  0.49906866  0.00126318  1
  Hf  Hf27  1  0.37492150  0.62485987  0.50052573  1
  Hf  Hf28  1  0.62406837  0.37409978  0.50126344  1
  Hf  Hf29  1  0.99989921  0.49981155  0.49958205  1
  Hf  Hf30  1  0.75049415  0.75033040  0.49852066  1
  Hf  Hf31  1  0.49946300  0.00010742  0.49941616  1
