# generated using pymatgen
data_HfTa3C4
_symmetry_space_group_name_H-M   'P 1'
_cell_length_a   8.45023349
_cell_length_b   8.44751725
_cell_length_c   5.52848270
_cell_angle_alpha   102.60356947
_cell_angle_beta   102.59007218
_cell_angle_gamma   98.25981417
_symmetry_Int_Tables_number   1
_chemical_formula_structural   HfTa3C4
_chemical_formula_sum   'Hf4 Ta12 C16'
_cell_volume   368.21839125
_cell_formula_units_Z   4
loop_
 _symmetry_equiv_pos_site_id
 _symmetry_equiv_pos_as_xyz
  1  'x, y, z'
loop_
 _atom_site_type_symbol
 _atom_site_label
 _atom_site_symmetry_multiplicity
 _atom_site_fract_x
 _atom_site_fract_y
 _atom_site_fract_z
 _atom_site_occupancy
  Hf  Hf0  1  0.37638837  0.12597769  0.99972794  1
  Hf  Hf1  1  0.25076461  0.25122355  0.49942212  1
  Hf  Hf2  1  0.12386678  0.87276910  0.50143172  1
  Hf  Hf3  1  0.87402405  0.12521726  0.50075419  1
  C  C4  1  0.49959007  0.74863333  0.25032791  1
  C  C5  1  0.25008998  0.99693337  0.24705589  1
  C  C6  1  0.37707903  0.37956872  0.24886011  1
  C  C7  1  0.12484279  0.62300505  0.24753707  1
  C  C8  1  0.87138229  0.87141220  0.24642096  1
  C  C9  1  0.99875183  0.25194981  0.24514399  1
  C  C10  1  0.75009141  0.50057875  0.24896472  1
  C  C11  1  0.62551492  0.12509917  0.24896213  1
  C  C12  1  0.37713823  0.87230178  0.75085468  1
  C  C13  1  0.50504362  0.25286256  0.74944873  1
  C  C14  1  0.25109365  0.50336888  0.75117196  1
  C  C15  1  0.99729138  0.74690672  0.75402014  1
  C  C16  1  0.74817626  0.99813998  0.75297850  1
  C  C17  1  0.12311077  0.12602763  0.75632573  1
  C  C18  1  0.87487319  0.37722218  0.75248892  1
  C  C19  1  0.62582797  0.62594743  0.74961894  1
  Ta  Ta20  1  0.12510807  0.37725412  0.99961639  1
  Ta  Ta21  1  0.25154359  0.74935737  0.00020492  1
  Ta  Ta22  1  0.99766065  0.99853912  0.00166294  1
  Ta  Ta23  1  0.75093007  0.25161290  0.99908723  1
  Ta  Ta24  1  0.87362947  0.62344670  0.00038372  1
  Ta  Ta25  1  0.62389998  0.87297828  0.00021103  1
  Ta  Ta26  1  0.50127388  0.50228452  0.99982439  1
  Ta  Ta27  1  0.37604169  0.62540191  0.49975474  1
  Ta  Ta28  1  0.62711532  0.37765812  0.49918367  1
  Ta  Ta29  1  0.99910708  0.49927919  0.50041678  1
  Ta  Ta30  1  0.74846457  0.74916443  0.49801776  1
  Ta  Ta31  1  0.50028442  0.99787819  0.50012006  1
