# generated using pymatgen
data_Ti31NiC32
_symmetry_space_group_name_H-M   'P 1'
_cell_length_a   8.66406294
_cell_length_b   8.66406294
_cell_length_c   8.66406294
_cell_angle_alpha   90.00000000
_cell_angle_beta   90.00000000
_cell_angle_gamma   90.00000000
_symmetry_Int_Tables_number   1
_chemical_formula_structural   Ti31NiC32
_chemical_formula_sum   'Ti31 Ni1 C32'
_cell_volume   650.37643280
_cell_formula_units_Z   1
loop_
 _symmetry_equiv_pos_site_id
 _symmetry_equiv_pos_as_xyz
  1  'x, y, z'
loop_
 _atom_site_type_symbol
 _atom_site_label
 _atom_site_symmetry_multiplicity
 _atom_site_fract_x
 _atom_site_fract_y
 _atom_site_fract_z
 _atom_site_occupancy
  Ti  Ti0  1  0.00000000  -0.00000000  -0.00000000  1
  Ti  Ti1  1  0.00000000  0.25023158  0.25023158  1
  Ti  Ti2  1  0.25023158  -0.00000000  0.25023158  1
  Ti  Ti3  1  0.25023158  0.25023158  -0.00000000  1
  Ti  Ti4  1  0.00000000  -0.00000000  0.50000000  1
  Ti  Ti5  1  0.00000000  0.25023158  0.74976842  1
  Ti  Ti6  1  0.25023158  -0.00000000  0.74976842  1
  Ti  Ti7  1  0.25101867  0.25101867  0.50000000  1
  Ti  Ti8  1  0.00000000  0.50000000  -0.00000000  1
  Ti  Ti9  1  0.00000000  0.74976842  0.25023158  1
  Ti  Ti10  1  0.25101867  0.50000000  0.25101867  1
  Ti  Ti11  1  0.25023158  0.74976842  -0.00000000  1
  Ti  Ti12  1  0.00000000  0.50000000  0.50000000  1
  Ti  Ti13  1  0.00000000  0.74976842  0.74976842  1
  Ti  Ti14  1  0.25101867  0.50000000  0.74898133  1
  Ti  Ti15  1  0.25101867  0.74898133  0.50000000  1
  Ti  Ti16  1  0.50000000  -0.00000000  -0.00000000  1
  Ti  Ti17  1  0.50000000  0.25101867  0.25101867  1
  Ti  Ti18  1  0.74976842  -0.00000000  0.25023158  1
  Ti  Ti19  1  0.74976842  0.25023158  -0.00000000  1
  Ti  Ti20  1  0.50000000  -0.00000000  0.50000000  1
  Ti  Ti21  1  0.50000000  0.25101867  0.74898133  1
  Ti  Ti22  1  0.74976842  -0.00000000  0.74976842  1
  Ti  Ti23  1  0.74898133  0.25101867  0.50000000  1
  Ti  Ti24  1  0.50000000  0.50000000  -0.00000000  1
  Ti  Ti25  1  0.50000000  0.74898133  0.25101867  1
  Ti  Ti26  1  0.74898133  0.50000000  0.25101867  1
  Ti  Ti27  1  0.74976842  0.74976842  -0.00000000  1
  Ti  Ti28  1  0.50000000  0.74898133  0.74898133  1
  Ti  Ti29  1  0.74898133  0.50000000  0.74898133  1
  Ti  Ti30  1  0.74898133  0.74898133  0.50000000  1
  C  C31  1  0.25084628  0.25084628  0.25084628  1
  C  C32  1  0.25031996  -0.00000000  -0.00000000  1
  C  C33  1  0.00000000  0.25031996  -0.00000000  1
  C  C34  1  0.00000000  -0.00000000  0.25031996  1
  C  C35  1  0.25084628  0.25084628  0.74915372  1
  C  C36  1  0.25029896  -0.00000000  0.50000000  1
  C  C37  1  0.00000000  0.25029896  0.50000000  1
  C  C38  1  0.00000000  -0.00000000  0.74968004  1
  C  C39  1  0.25084628  0.74915372  0.25084628  1
  C  C40  1  0.25029896  0.50000000  -0.00000000  1
  C  C41  1  0.00000000  0.74968004  -0.00000000  1
  C  C42  1  0.00000000  0.50000000  0.25029896  1
  C  C43  1  0.25084628  0.74915372  0.74915372  1
  C  C44  1  0.25212149  0.50000000  0.50000000  1
  C  C45  1  0.00000000  0.74970104  0.50000000  1
  C  C46  1  0.00000000  0.50000000  0.74970104  1
  C  C47  1  0.74915372  0.25084628  0.25084628  1
  C  C48  1  0.74968004  -0.00000000  -0.00000000  1
  C  C49  1  0.50000000  0.25029896  -0.00000000  1
  C  C50  1  0.50000000  -0.00000000  0.25029896  1
  C  C51  1  0.74915372  0.25084628  0.74915372  1
  C  C52  1  0.74970104  -0.00000000  0.50000000  1
  C  C53  1  0.50000000  0.25212149  0.50000000  1
  C  C54  1  0.50000000  -0.00000000  0.74970104  1
  C  C55  1  0.74915372  0.74915372  0.25084628  1
  C  C56  1  0.74970104  0.50000000  -0.00000000  1
  C  C57  1  0.50000000  0.74970104  -0.00000000  1
  C  C58  1  0.50000000  0.50000000  0.25212149  1
  C  C59  1  0.74915372  0.74915372  0.74915372  1
  C  C60  1  0.74787851  0.50000000  0.50000000  1
  C  C61  1  0.50000000  0.74787851  0.50000000  1
  C  C62  1  0.50000000  0.50000000  0.74787851  1
  Ni  Ni63  1  0.50000000  0.50000000  0.50000000  1
