# generated using pymatgen
data_Ti7NiC8
_symmetry_space_group_name_H-M   'P 1'
_cell_length_a   7.37604807
_cell_length_b   7.37604807
_cell_length_c   6.77960377
_cell_angle_alpha   111.46076553
_cell_angle_beta   111.46076556
_cell_angle_gamma   70.72108495
_symmetry_Int_Tables_number   1
_chemical_formula_structural   Ti7NiC8
_chemical_formula_sum   'Ti14 Ni2 C16'
_cell_volume   311.16456123
_cell_formula_units_Z   2
loop_
 _symmetry_equiv_pos_site_id
 _symmetry_equiv_pos_as_xyz
  1  'x, y, z'
loop_
 _atom_site_type_symbol
 _atom_site_label
 _atom_site_symmetry_multiplicity
 _atom_site_fract_x
 _atom_site_fract_y
 _atom_site_fract_z
 _atom_site_occupancy
  Ni  Ni0  1  0.87648826  0.87648826  0.49538696  1
  Ni  Ni1  1  0.74851174  0.74851174  0.00461304  1
  C  C2  1  0.50229666  0.99821966  0.00183458  1
  C  C3  1  0.56450889  0.56450889  0.75067244  1
  C  C4  1  0.37576085  0.87455704  0.50124666  1
  C  C5  1  0.43782058  0.43782058  0.24768702  1
  C  C6  1  0.24923915  0.75044296  0.99875334  1
  C  C7  1  0.06049111  0.06049111  0.74932756  1
  C  C8  1  0.31250000  0.31250000  0.75000000  1
  C  C9  1  0.12270334  0.62678034  0.49816542  1
  C  C10  1  0.93099483  0.93099483  0.24845759  1
  C  C11  1  0.18717942  0.18717942  0.25231298  1
  C  C12  1  0.99821966  0.50229666  0.00183458  1
  C  C13  1  0.81250000  0.81250000  0.75000000  1
  C  C14  1  0.87455704  0.37576085  0.50124666  1
  C  C15  1  0.69400517  0.69400517  0.25154241  1
  C  C16  1  0.75044296  0.24923915  0.99875334  1
  C  C17  1  0.62678034  0.12270334  0.49816542  1
  Ti  Ti18  1  0.50243642  0.50243642  0.00076579  1
  Ti  Ti19  1  0.56593734  0.05906266  0.75000000  1
  Ti  Ti20  1  0.37579609  0.37579609  0.50181713  1
  Ti  Ti21  1  0.44017140  0.93736338  0.25038060  1
  Ti  Ti22  1  0.24920391  0.24920391  0.99818287  1
  Ti  Ti23  1  0.05906266  0.56593734  0.75000000  1
  Ti  Ti24  1  0.31250000  0.81250000  0.75000000  1
  Ti  Ti25  1  0.12256358  0.12256358  0.49923421  1
  Ti  Ti26  1  0.93736338  0.44017140  0.25038060  1
  Ti  Ti27  1  0.18482860  0.68763662  0.24961940  1
  Ti  Ti28  1  0.99674908  0.99674908  0.99693786  1
  Ti  Ti29  1  0.81250000  0.31250000  0.75000000  1
  Ti  Ti30  1  0.68763662  0.18482860  0.24961940  1
  Ti  Ti31  1  0.62825092  0.62825092  0.50306214  1
