# generated using pymatgen
data_Ti7MoC8
_symmetry_space_group_name_H-M   'P 1'
_cell_length_a   8.59704236
_cell_length_b   8.58433157
_cell_length_c   9.10857731
_cell_angle_alpha   103.62975639
_cell_angle_beta   103.64191047
_cell_angle_gamma   89.99215804
_symmetry_Int_Tables_number   1
_chemical_formula_structural   Ti7MoC8
_chemical_formula_sum   'Ti28 Mo4 C32'
_cell_volume   633.75669767
_cell_formula_units_Z   4
loop_
 _symmetry_equiv_pos_site_id
 _symmetry_equiv_pos_as_xyz
  1  'x, y, z'
loop_
 _atom_site_type_symbol
 _atom_site_label
 _atom_site_symmetry_multiplicity
 _atom_site_fract_x
 _atom_site_fract_y
 _atom_site_fract_z
 _atom_site_occupancy
  Mo  Mo0  1  0.18272589  0.93796988  0.74982615  1
  Mo  Mo1  1  0.69262334  0.93806525  0.74859353  1
  Mo  Mo2  1  0.62540054  0.62349998  0.49944489  1
  Mo  Mo3  1  0.49920744  0.00055095  0.00024278  1
  C  C4  1  0.62500399  0.87550521  0.49826336  1
  C  C5  1  0.37504226  0.12460348  0.50130124  1
  C  C6  1  0.56234465  0.06247884  0.24958830  1
  C  C7  1  0.62478268  0.37461244  0.49921043  1
  C  C8  1  0.37532320  0.62591008  0.50130361  1
  C  C9  1  0.12440768  0.87505360  0.49917216  1
  C  C10  1  0.87537627  0.12492727  0.50067942  1
  C  C11  1  0.56246508  0.56216629  0.24968794  1
  C  C12  1  0.31323817  0.81249522  0.25031455  1
  C  C13  1  0.06246113  0.06250264  0.25038106  1
  C  C14  1  0.49973808  0.75050688  0.99883530  1
  C  C15  1  0.24970394  0.00039277  0.00199504  1
  C  C16  1  0.43782096  0.93687984  0.74853885  1
  C  C17  1  0.12492091  0.37461412  0.49962726  1
  C  C18  1  0.87530061  0.62535150  0.50074124  1
  C  C19  1  0.31306055  0.31260716  0.25019749  1
  C  C20  1  0.06248994  0.56263057  0.24995160  1
  C  C21  1  0.81178493  0.81252114  0.24972380  1
  C  C22  1  0.49960860  0.24921946  0.99876906  1
  C  C23  1  0.25006744  0.50024741  0.00060486  1
  C  C24  1  0.99983912  0.74989321  0.99921960  1
  C  C25  1  0.75082643  0.00060415  0.00128335  1
  C  C26  1  0.43765796  0.43745799  0.74918418  1
  C  C27  1  0.18798581  0.68730512  0.75061949  1
  C  C28  1  0.93692625  0.93699103  0.74851170  1
  C  C29  1  0.81205673  0.31248064  0.25009472  1
  C  C30  1  0.99980766  0.24972538  0.99931066  1
  C  C31  1  0.75023321  0.50005088  0.00058710  1
  C  C32  1  0.18793793  0.18809145  0.75061922  1
  C  C33  1  0.93692824  0.43748446  0.74926315  1
  C  C34  1  0.68745548  0.68666287  0.75107662  1
  C  C35  1  0.68743353  0.18794887  0.75086168  1
  Ti  Ti36  1  0.43704513  0.18847546  0.74930375  1
  Ti  Ti37  1  0.18746636  0.43728501  0.75082259  1
  Ti  Ti38  1  0.37408550  0.37433088  0.49982601  1
  Ti  Ti39  1  0.43680211  0.68588164  0.74987444  1
  Ti  Ti40  1  0.93757704  0.18928754  0.74977844  1
  Ti  Ti41  1  0.68778322  0.43663657  0.75055708  1
  Ti  Ti42  1  0.37422850  0.87592043  0.50005603  1
  Ti  Ti43  1  0.12448099  0.12576102  0.49903593  1
  Ti  Ti44  1  0.87583308  0.37414114  0.49964527  1
  Ti  Ti45  1  0.31111569  0.06230062  0.24868637  1
  Ti  Ti46  1  0.06279436  0.31299873  0.25107925  1
  Ti  Ti47  1  0.24895567  0.25137556  0.00051008  1
  Ti  Ti48  1  0.93810050  0.68531370  0.75065573  1
  Ti  Ti49  1  0.12470883  0.62427905  0.50004197  1
  Ti  Ti50  1  0.87533883  0.87551620  0.49819610  1
  Ti  Ti51  1  0.62449965  0.12541297  0.49745827  1
  Ti  Ti52  1  0.31166102  0.56243619  0.25000326  1
  Ti  Ti53  1  0.06272930  0.81279137  0.25176872  1
  Ti  Ti54  1  0.81300537  0.06232539  0.24817295  1
  Ti  Ti55  1  0.56255649  0.31274373  0.25017190  1
  Ti  Ti56  1  0.24908373  0.74900163  0.00072823  1
  Ti  Ti57  1  0.00076448  0.00054265  0.00200127  1
  Ti  Ti58  1  0.75114534  0.25097100  0.00024915  1
  Ti  Ti59  1  0.81340400  0.56204224  0.24949814  1
  Ti  Ti60  1  0.56296039  0.81269149  0.25098516  1
  Ti  Ti61  1  0.00049709  0.50034750  0.00176294  1
  Ti  Ti62  1  0.75083124  0.74890958  0.99945129  1
  Ti  Ti63  1  0.50055944  0.50027266  0.00205425  1
