# generated using pymatgen
data_Ti7MoC8
_symmetry_space_group_name_H-M   'P 1'
_cell_length_a   7.44077992
_cell_length_b   7.44077992
_cell_length_c   6.79215176
_cell_angle_alpha   111.44329259
_cell_angle_beta   111.44329258
_cell_angle_gamma   70.46886587
_symmetry_Int_Tables_number   1
_chemical_formula_structural   Ti7MoC8
_chemical_formula_sum   'Ti14 Mo2 C16'
_cell_volume   316.93040950
_cell_formula_units_Z   2
loop_
 _symmetry_equiv_pos_site_id
 _symmetry_equiv_pos_as_xyz
  1  'x, y, z'
loop_
 _atom_site_type_symbol
 _atom_site_label
 _atom_site_symmetry_multiplicity
 _atom_site_fract_x
 _atom_site_fract_y
 _atom_site_fract_z
 _atom_site_occupancy
  Mo  Mo0  1  0.87498951  0.87498951  0.50452456  1
  Mo  Mo1  1  0.75001049  0.75001049  0.99547544  1
  C  C2  1  0.49987734  0.00045378  0.00087372  1
  C  C3  1  0.56261756  0.56261756  0.74920644  1
  C  C4  1  0.37514608  0.87520248  0.50073501  1
  C  C5  1  0.43789289  0.43789289  0.24966793  1
  C  C6  1  0.24985392  0.74979752  0.99926499  1
  C  C7  1  0.06238244  0.06238244  0.75079356  1
  C  C8  1  0.31250000  0.31250000  0.75000000  1
  C  C9  1  0.12512266  0.62454622  0.49912628  1
  C  C10  1  0.93857452  0.93857452  0.25106408  1
  C  C11  1  0.18710711  0.18710711  0.25033207  1
  C  C12  1  0.00045378  0.49987734  0.00087372  1
  C  C13  1  0.81250000  0.81250000  0.75000000  1
  C  C14  1  0.87520248  0.37514608  0.50073501  1
  C  C15  1  0.68642548  0.68642548  0.24893592  1
  C  C16  1  0.74979752  0.24985392  0.99926499  1
  C  C17  1  0.62454622  0.12512266  0.49912628  1
  Ti  Ti18  1  0.50063072  0.50063072  0.00177910  1
  Ti  Ti19  1  0.56067898  0.06432102  0.75000000  1
  Ti  Ti20  1  0.37590858  0.37590858  0.50145925  1
  Ti  Ti21  1  0.43673731  0.93859300  0.25007439  1
  Ti  Ti22  1  0.24909142  0.24909142  0.99854075  1
  Ti  Ti23  1  0.06432102  0.56067898  0.75000000  1
  Ti  Ti24  1  0.31250000  0.81250000  0.75000000  1
  Ti  Ti25  1  0.12436928  0.12436928  0.49822090  1
  Ti  Ti26  1  0.93859300  0.43673731  0.25007439  1
  Ti  Ti27  1  0.18826269  0.68640700  0.24992561  1
  Ti  Ti28  1  0.00057579  0.00057579  0.00331904  1
  Ti  Ti29  1  0.81250000  0.31250000  0.75000000  1
  Ti  Ti30  1  0.68640700  0.18826269  0.24992561  1
  Ti  Ti31  1  0.62442421  0.62442421  0.49668096  1
