# generated using pymatgen
data_Ti7MoC8
_symmetry_space_group_name_H-M   'P 1'
_cell_length_a   6.79061930
_cell_length_b   6.79062754
_cell_length_c   8.03633322
_cell_angle_alpha   75.25826203
_cell_angle_beta   65.01921035
_cell_angle_gamma   72.50990276
_symmetry_Int_Tables_number   1
_chemical_formula_structural   Ti7MoC8
_chemical_formula_sum   'Ti14 Mo2 C16'
_cell_volume   316.87357897
_cell_formula_units_Z   2
loop_
 _symmetry_equiv_pos_site_id
 _symmetry_equiv_pos_as_xyz
  1  'x, y, z'
loop_
 _atom_site_type_symbol
 _atom_site_label
 _atom_site_symmetry_multiplicity
 _atom_site_fract_x
 _atom_site_fract_y
 _atom_site_fract_z
 _atom_site_occupancy
  Mo  Mo0  1  0.99992473  0.00370381  0.00048526  1
  Mo  Mo1  1  0.93757527  0.55879619  0.18701474  1
  C  C2  1  0.84378552  0.40488724  0.46910848  1
  C  C3  1  0.15604308  0.59380103  0.53055540  1
  C  C4  1  0.28172312  0.46943803  0.15585360  1
  C  C5  1  0.46875000  0.78125000  0.59375000  1
  C  C6  1  0.78145692  0.96869897  0.65694460  1
  C  C7  1  0.09371448  0.15761276  0.71839152  1
  C  C8  1  0.59327551  0.65683059  0.21914310  1
  C  C9  1  0.90585358  0.84312285  0.28280649  1
  C  C10  1  0.21865884  0.03157139  0.34317640  1
  C  C11  1  0.40554518  0.34374570  0.78165721  1
  C  C12  1  0.71884116  0.53092861  0.84432360  1
  C  C13  1  0.03164642  0.71937715  0.90469351  1
  C  C14  1  0.34422449  0.90566941  0.96835690  1
  C  C15  1  0.53195482  0.21875430  0.40584279  1
  C  C16  1  0.65577688  0.09306197  0.03164640  1
  C  C17  1  0.96875000  0.28125000  0.09375000  1
  Ti  Ti18  1  0.06269203  0.44000384  0.81159275  1
  Ti  Ti19  1  0.37601169  0.62524463  0.87375501  1
  Ti  Ti20  1  0.49994360  0.49958508  0.50012317  1
  Ti  Ti21  1  0.68564818  0.81361925  0.93621693  1
  Ti  Ti22  1  0.31575976  0.18692445  0.06231243  1
  Ti  Ti23  1  0.81297403  0.68835903  0.56100937  1
  Ti  Ti24  1  0.12452597  0.87414097  0.62649063  1
  Ti  Ti25  1  0.43755640  0.06291492  0.68737683  1
  Ti  Ti26  1  0.62174024  0.37557555  0.12518757  1
  Ti  Ti27  1  0.25185182  0.74888075  0.25128307  1
  Ti  Ti28  1  0.56148831  0.93725537  0.31374499  1
  Ti  Ti29  1  0.75032264  0.25179014  0.74746277  1
  Ti  Ti30  1  0.87480797  0.12249616  0.37590725  1
  Ti  Ti31  1  0.18717736  0.31070986  0.44003723  1
