# generated using pymatgen
data_Ti7WC8
_symmetry_space_group_name_H-M   'P 1'
_cell_length_a   8.60119727
_cell_length_b   8.58774353
_cell_length_c   9.11514537
_cell_angle_alpha   103.62167991
_cell_angle_beta   103.63830504
_cell_angle_gamma   89.99139210
_symmetry_Int_Tables_number   1
_chemical_formula_structural   Ti7WC8
_chemical_formula_sum   'Ti28 W4 C32'
_cell_volume   634.80627050
_cell_formula_units_Z   4
loop_
 _symmetry_equiv_pos_site_id
 _symmetry_equiv_pos_as_xyz
  1  'x, y, z'
loop_
 _atom_site_type_symbol
 _atom_site_label
 _atom_site_symmetry_multiplicity
 _atom_site_fract_x
 _atom_site_fract_y
 _atom_site_fract_z
 _atom_site_occupancy
  W  W0  1  0.18336530  0.93759353  0.74855337  1
  W  W1  1  0.69156768  0.93935677  0.74870887  1
  W  W2  1  0.62503221  0.62193552  0.49839087  1
  W  W3  1  0.49984614  0.00097084  0.00238934  1
  C  C4  1  0.62516295  0.87527344  0.49915948  1
  C  C5  1  0.37506174  0.12477892  0.50080876  1
  C  C6  1  0.56227017  0.06233287  0.24899672  1
  C  C7  1  0.62481054  0.37519389  0.49924258  1
  C  C8  1  0.37603689  0.62560077  0.50102713  1
  C  C9  1  0.12473549  0.87517767  0.50011141  1
  C  C10  1  0.87520814  0.12510685  0.50023120  1
  C  C11  1  0.56262827  0.56236452  0.25053691  1
  C  C12  1  0.31296877  0.81254311  0.25040778  1
  C  C13  1  0.06247046  0.06243336  0.25025062  1
  C  C14  1  0.49977287  0.75112286  0.99920331  1
  C  C15  1  0.25011458  0.00015237  0.00115567  1
  C  C16  1  0.43779697  0.93712400  0.74885688  1
  C  C17  1  0.12497490  0.37479480  0.49976309  1
  C  C18  1  0.87441112  0.62509715  0.50056263  1
  C  C19  1  0.31266848  0.31250118  0.25003990  1
  C  C20  1  0.06253359  0.56267810  0.25022448  1
  C  C21  1  0.81208787  0.81246355  0.24973640  1
  C  C22  1  0.49959631  0.24866905  0.99913753  1
  C  C23  1  0.25016979  0.50021578  0.00064818  1
  C  C24  1  0.99981237  0.74989625  0.99934991  1
  C  C25  1  0.75016050  0.00040476  0.00051973  1
  C  C26  1  0.43757725  0.43745209  0.74957701  1
  C  C27  1  0.18778778  0.68811698  0.75039389  1
  C  C28  1  0.93684375  0.93714245  0.74860293  1
  C  C29  1  0.81239447  0.31240871  0.24990196  1
  C  C30  1  0.99991771  0.24983626  0.99951979  1
  C  C31  1  0.75011784  0.50004588  0.00052639  1
  C  C32  1  0.18778003  0.18714816  0.75053029  1
  C  C33  1  0.93713537  0.43745716  0.74953006  1
  C  C34  1  0.68735556  0.68741247  0.75039823  1
  C  C35  1  0.68755813  0.18709992  0.75073955  1
  Ti  Ti36  1  0.43678617  0.18915451  0.74897551  1
  Ti  Ti37  1  0.18748806  0.43729608  0.75072853  1
  Ti  Ti38  1  0.37358599  0.37397570  0.49972262  1
  Ti  Ti39  1  0.43675707  0.68521492  0.75021686  1
  Ti  Ti40  1  0.93778223  0.18997131  0.74963694  1
  Ti  Ti41  1  0.68780454  0.43653627  0.75088469  1
  Ti  Ti42  1  0.37393709  0.87611974  0.49938011  1
  Ti  Ti43  1  0.12435715  0.12607485  0.49850693  1
  Ti  Ti44  1  0.87627727  0.37385358  0.49956496  1
  Ti  Ti45  1  0.31062830  0.06244995  0.24912896  1
  Ti  Ti46  1  0.06272448  0.31294250  0.25069752  1
  Ti  Ti47  1  0.24870629  0.25193327  0.00089561  1
  Ti  Ti48  1  0.93835485  0.68476948  0.75110247  1
  Ti  Ti49  1  0.12458691  0.62359207  0.49952212  1
  Ti  Ti50  1  0.87531883  0.87566845  0.49772423  1
  Ti  Ti51  1  0.62448408  0.12581862  0.49694534  1
  Ti  Ti52  1  0.31106743  0.56227494  0.24978964  1
  Ti  Ti53  1  0.06269253  0.81266678  0.25165627  1
  Ti  Ti54  1  0.81383170  0.06250372  0.24867637  1
  Ti  Ti55  1  0.56247986  0.31278094  0.24998284  1
  Ti  Ti56  1  0.24896386  0.74869366  0.00145528  1
  Ti  Ti57  1  0.00092501  0.00059689  0.00222868  1
  Ti  Ti58  1  0.75166076  0.25184258  0.00088500  1
  Ti  Ti59  1  0.81378552  0.56190722  0.24926049  1
  Ti  Ti60  1  0.56305717  0.81252463  0.25120172  1
  Ti  Ti61  1  0.00050970  0.50024409  0.00151968  1
  Ti  Ti62  1  0.75135745  0.74843119  0.00009240  1
  Ti  Ti63  1  0.50035771  0.50026008  0.00188533  1
