# generated using pymatgen
data_Ti7WC8
_symmetry_space_group_name_H-M   'P 1'
_cell_length_a   7.43872655
_cell_length_b   9.60741208
_cell_length_c   10.07859212
_cell_angle_alpha   67.59751715
_cell_angle_beta   75.78617113
_cell_angle_gamma   75.05319317
_symmetry_Int_Tables_number   1
_chemical_formula_structural   Ti7WC8
_chemical_formula_sum   'Ti28 W4 C32'
_cell_volume   634.59280361
_cell_formula_units_Z   4
loop_
 _symmetry_equiv_pos_site_id
 _symmetry_equiv_pos_as_xyz
  1  'x, y, z'
loop_
 _atom_site_type_symbol
 _atom_site_label
 _atom_site_symmetry_multiplicity
 _atom_site_fract_x
 _atom_site_fract_y
 _atom_site_fract_z
 _atom_site_occupancy
  W  W0  1  0.65713368  0.59168921  0.43841226  1
  W  W1  1  0.53077327  0.72109752  0.68947972  1
  W  W2  1  0.71788519  0.03115304  0.80999499  1
  W  W3  1  0.68753690  0.81224587  0.12497353  1
  C  C4  1  0.87509608  0.62447524  0.25002358  1
  C  C5  1  0.96873833  0.28142307  0.31215927  1
  C  C6  1  0.37547201  0.12502601  0.25006020  1
  C  C7  1  0.06261711  0.93733738  0.37506229  1
  C  C8  1  0.46862669  0.78111930  0.31305302  1
  C  C9  1  0.15652605  0.59405237  0.43718899  1
  C  C10  1  0.56355286  0.43824493  0.37472849  1
  C  C11  1  0.24992503  0.25015890  0.50034781  1
  C  C12  1  0.93660671  0.06290121  0.62485540  1
  C  C13  1  0.65598782  0.09337626  0.43799359  1
  C  C14  1  0.34412052  0.90580192  0.56266991  1
  C  C15  1  0.03125674  0.71873171  0.68747614  1
  C  C16  1  0.75073030  0.75018068  0.49940615  1
  C  C17  1  0.43769684  0.56205408  0.62543211  1
  C  C18  1  0.12485721  0.37504967  0.74978243  1
  C  C19  1  0.84252047  0.40663108  0.56283441  1
  C  C20  1  0.53209641  0.21865219  0.68726138  1
  C  C21  1  0.21838641  0.03111385  0.81270614  1
  C  C22  1  0.90650068  0.84360292  0.93731014  1
  C  C23  1  0.62430050  0.87488492  0.75066408  1
  C  C24  1  0.31315419  0.68777793  0.87483339  1
  C  C25  1  0.99988583  0.49991727  0.99969880  1
  C  C26  1  0.71852945  0.53186568  0.81188634  1
  C  C27  1  0.40655330  0.34386728  0.93742419  1
  C  C28  1  0.09356178  0.15609338  0.06253755  1
  C  C29  1  0.81168135  0.18674675  0.87472996  1
  C  C30  1  0.49964296  0.00017327  0.00013315  1
  C  C31  1  0.18742911  0.81251158  0.12516510  1
  C  C32  1  0.59402320  0.65699490  0.06250666  1
  C  C33  1  0.28159929  0.46870481  0.18775139  1
  C  C34  1  0.68732070  0.31257893  0.12496323  1
  C  C35  1  0.78108426  0.96813844  0.18715150  1
  Ti  Ti36  1  0.37338453  0.62446584  0.25023050  1
  Ti  Ti37  1  0.46852557  0.28210032  0.31276951  1
  Ti  Ti38  1  0.87561385  0.12451973  0.24903420  1
  Ti  Ti39  1  0.56157601  0.94031836  0.37445186  1
  Ti  Ti40  1  0.97008485  0.78141922  0.31332793  1
  Ti  Ti41  1  0.06369396  0.43742465  0.37383864  1
  Ti  Ti42  1  0.75109076  0.24889189  0.49857952  1
  Ti  Ti43  1  0.43526310  0.06433159  0.62417045  1
  Ti  Ti44  1  0.15576329  0.09341493  0.43838969  1
  Ti  Ti45  1  0.84475232  0.90563615  0.56048904  1
  Ti  Ti46  1  0.25019077  0.75025008  0.49906161  1
  Ti  Ti47  1  0.94027309  0.56216826  0.62503302  1
  Ti  Ti48  1  0.62434634  0.37467442  0.75129788  1
  Ti  Ti49  1  0.34399107  0.40499922  0.56405850  1
  Ti  Ti50  1  0.03090163  0.22059135  0.68641375  1
  Ti  Ti51  1  0.40316333  0.84436735  0.93828032  1
  Ti  Ti52  1  0.12315687  0.87539505  0.75064784  1
  Ti  Ti53  1  0.81500870  0.68520939  0.87508432  1
  Ti  Ti54  1  0.49984858  0.49997657  0.00192804  1
  Ti  Ti55  1  0.21974325  0.53025702  0.81236386  1
  Ti  Ti56  1  0.90586254  0.34344041  0.93660365  1
  Ti  Ti57  1  0.59230443  0.15824581  0.06318055  1
  Ti  Ti58  1  0.31121436  0.18723039  0.87639682  1
  Ti  Ti59  1  0.00051597  0.00100622  -0.00000523  1
  Ti  Ti60  1  0.09426039  0.65604505  0.06179619  1
  Ti  Ti61  1  0.78335027  0.46602724  0.18689842  1
  Ti  Ti62  1  0.18750928  0.31202509  0.12528937  1
  Ti  Ti63  1  0.28120170  0.96919483  0.18773247  1
