# generated using pymatgen
data_Ti7WC8
_symmetry_space_group_name_H-M   'P 1'
_cell_length_a   7.44185478
_cell_length_b   7.44185478
_cell_length_c   6.79618407
_cell_angle_alpha   111.43261772
_cell_angle_beta   111.43261773
_cell_angle_gamma   70.45597429
_symmetry_Int_Tables_number   1
_chemical_formula_structural   Ti7WC8
_chemical_formula_sum   'Ti14 W2 C16'
_cell_volume   317.22884886
_cell_formula_units_Z   2
loop_
 _symmetry_equiv_pos_site_id
 _symmetry_equiv_pos_as_xyz
  1  'x, y, z'
loop_
 _atom_site_type_symbol
 _atom_site_label
 _atom_site_symmetry_multiplicity
 _atom_site_fract_x
 _atom_site_fract_y
 _atom_site_fract_z
 _atom_site_occupancy
  W  W0  1  0.87553410  0.87553410  0.50485807  1
  W  W1  1  0.74946590  0.74946590  0.99514193  1
  C  C2  1  0.50050726  0.99965605  0.00055286  1
  C  C3  1  0.56315876  0.56315876  0.75000865  1
  C  C4  1  0.37497854  0.87519681  0.50034045  1
  C  C5  1  0.43774138  0.43774138  0.24982703  1
  C  C6  1  0.25002146  0.74980319  0.99965955  1
  C  C7  1  0.06184124  0.06184124  0.74999135  1
  C  C8  1  0.31250000  0.31250000  0.75000000  1
  C  C9  1  0.12449274  0.62534395  0.49944714  1
  C  C10  1  0.93774189  0.93774189  0.25079813  1
  C  C11  1  0.18725862  0.18725862  0.25017297  1
  C  C12  1  0.99965605  0.50050726  0.00055286  1
  C  C13  1  0.81250000  0.81250000  0.75000000  1
  C  C14  1  0.87519681  0.37497854  0.50034045  1
  C  C15  1  0.68725811  0.68725811  0.24920187  1
  C  C16  1  0.74980319  0.25002146  0.99965955  1
  C  C17  1  0.62534395  0.12449274  0.49944714  1
  Ti  Ti18  1  0.50020344  0.50020344  0.00150421  1
  Ti  Ti19  1  0.56010572  0.06489428  0.75000000  1
  Ti  Ti20  1  0.37587114  0.37587114  0.50128705  1
  Ti  Ti21  1  0.43589315  0.93868066  0.25003895  1
  Ti  Ti22  1  0.24912886  0.24912886  0.99871295  1
  Ti  Ti23  1  0.06489428  0.56010572  0.75000000  1
  Ti  Ti24  1  0.31250000  0.81250000  0.75000000  1
  Ti  Ti25  1  0.12479656  0.12479656  0.49849579  1
  Ti  Ti26  1  0.93868066  0.43589315  0.25003895  1
  Ti  Ti27  1  0.18910685  0.68631934  0.24996105  1
  Ti  Ti28  1  0.00098815  0.00098815  0.00390951  1
  Ti  Ti29  1  0.81250000  0.31250000  0.75000000  1
  Ti  Ti30  1  0.68631934  0.18910685  0.24996105  1
  Ti  Ti31  1  0.62401185  0.62401185  0.49609049  1
