# generated using pymatgen
data_Ti7WC8
_symmetry_space_group_name_H-M   'P 1'
_cell_length_a   6.79099651
_cell_length_b   6.79315855
_cell_length_c   8.03892388
_cell_angle_alpha   75.25451492
_cell_angle_beta   65.01187174
_cell_angle_gamma   72.51315368
_symmetry_Int_Tables_number   1
_chemical_formula_structural   Ti7WC8
_chemical_formula_sum   'Ti14 W2 C16'
_cell_volume   317.09510123
_cell_formula_units_Z   2
loop_
 _symmetry_equiv_pos_site_id
 _symmetry_equiv_pos_as_xyz
  1  'x, y, z'
loop_
 _atom_site_type_symbol
 _atom_site_label
 _atom_site_symmetry_multiplicity
 _atom_site_fract_x
 _atom_site_fract_y
 _atom_site_fract_z
 _atom_site_occupancy
  W  W0  1  0.00009391  0.00435963  0.99938340  1
  W  W1  1  0.93740609  0.55814037  0.18811660  1
  C  C2  1  0.84423392  0.40535807  0.46811221  1
  C  C3  1  0.15613313  0.59376918  0.53083789  1
  C  C4  1  0.28066189  0.46944814  0.15610522  1
  C  C5  1  0.46875000  0.78125000  0.59375000  1
  C  C6  1  0.78136687  0.96873082  0.65666211  1
  C  C7  1  0.09326608  0.15714193  0.71938779  1
  C  C8  1  0.59435785  0.65629570  0.21896905  1
  C  C9  1  0.90633839  0.84287288  0.28173803  1
  C  C10  1  0.21893500  0.03105221  0.34346839  1
  C  C11  1  0.40603579  0.34394764  0.78139831  1
  C  C12  1  0.71856500  0.53144779  0.84403161  1
  C  C13  1  0.03116161  0.71962712  0.90576197  1
  C  C14  1  0.34314215  0.90620430  0.96853095  1
  C  C15  1  0.53146421  0.21855236  0.40610169  1
  C  C16  1  0.65683811  0.09305186  0.03139478  1
  C  C17  1  0.96875000  0.28125000  0.09375000  1
  Ti  Ti18  1  0.06265003  0.44067175  0.81127161  1
  Ti  Ti19  1  0.37680373  0.62504336  0.87325703  1
  Ti  Ti20  1  0.49916033  0.49940171  0.50075102  1
  Ti  Ti21  1  0.68517929  0.81381063  0.93582486  1
  Ti  Ti22  1  0.31639224  0.18670440  0.06225164  1
  Ti  Ti23  1  0.81276411  0.68852026  0.56154970  1
  Ti  Ti24  1  0.12473589  0.87397974  0.62595030  1
  Ti  Ti25  1  0.43833967  0.06309829  0.68674898  1
  Ti  Ti26  1  0.62110776  0.37579560  0.12524836  1
  Ti  Ti27  1  0.25232071  0.74868937  0.25167514  1
  Ti  Ti28  1  0.56069627  0.93745664  0.31424297  1
  Ti  Ti29  1  0.74989737  0.25219120  0.74716781  1
  Ti  Ti30  1  0.87484997  0.12182825  0.37622839  1
  Ti  Ti31  1  0.18760263  0.31030880  0.44033219  1
