# generated using pymatgen
data_Ti3NiC4
_symmetry_space_group_name_H-M   'P 1'
_cell_length_a   7.93193463
_cell_length_b   7.92520440
_cell_length_c   5.17140296
_cell_angle_alpha   102.80685356
_cell_angle_beta   102.11350127
_cell_angle_gamma   98.06715986
_symmetry_Int_Tables_number   1
_chemical_formula_structural   Ti3NiC4
_chemical_formula_sum   'Ti12 Ni4 C16'
_cell_volume   303.92979569
_cell_formula_units_Z   4
loop_
 _symmetry_equiv_pos_site_id
 _symmetry_equiv_pos_as_xyz
  1  'x, y, z'
loop_
 _atom_site_type_symbol
 _atom_site_label
 _atom_site_symmetry_multiplicity
 _atom_site_fract_x
 _atom_site_fract_y
 _atom_site_fract_z
 _atom_site_occupancy
  Ni  Ni0  1  0.37774878  0.12768680  0.99330976  1
  Ni  Ni1  1  0.25016739  0.25199950  0.48964712  1
  Ni  Ni2  1  0.12284902  0.86607732  0.50081418  1
  Ni  Ni3  1  0.87347957  0.12583729  0.50546274  1
  C  C4  1  0.49931315  0.75510608  0.25386178  1
  C  C5  1  0.24469202  0.00707073  0.25718340  1
  C  C6  1  0.37436759  0.36911937  0.24347228  1
  C  C7  1  0.12562908  0.61893483  0.24922405  1
  C  C8  1  0.88406687  0.88511921  0.26120348  1
  C  C9  1  0.00309758  0.24264573  0.25568835  1
  C  C10  1  0.75117204  0.49941920  0.25388492  1
  C  C11  1  0.62304551  0.12645996  0.25325095  1
  C  C12  1  0.36875799  0.88023405  0.75270572  1
  C  C13  1  0.49196948  0.24869991  0.74994485  1
  C  C14  1  0.24841326  0.49839349  0.75124673  1
  C  C15  1  -0.00001517  0.75123023  0.75057512  1
  C  C16  1  0.75106620  0.00148724  0.74997095  1
  C  C17  1  0.13703515  0.11551897  0.71101796  1
  C  C18  1  0.87647955  0.37270048  0.75054097  1
  C  C19  1  0.62349531  0.62581790  0.75295225  1
  Ti  Ti20  1  0.12874421  0.36683568  0.99044118  1
  Ti  Ti21  1  0.24814409  0.75603959  0.00734332  1
  Ti  Ti22  1  0.00497355  0.00138907  0.98857886  1
  Ti  Ti23  1  0.75238042  0.24725724  0.00599479  1
  Ti  Ti24  1  0.87725334  0.62530023  0.00334320  1
  Ti  Ti25  1  0.62481316  0.88075835  0.00518117  1
  Ti  Ti26  1  0.49900789  0.50030491  0.00387432  1
  Ti  Ti27  1  0.37201560  0.62495812  0.50188695  1
  Ti  Ti28  1  0.62195337  0.37164546  0.50105301  1
  Ti  Ti29  1  0.00190100  0.49588357  0.50116632  1
  Ti  Ti30  1  0.75219347  0.75466197  0.50260420  1
  Ti  Ti31  1  0.48978952  0.00540746  0.50257518  1
