# generated using pymatgen
data_Ti3NiC4
_symmetry_space_group_name_H-M   'P 1'
_cell_length_a   7.35509441
_cell_length_b   7.28376085
_cell_length_c   6.73751859
_cell_angle_alpha   111.97647798
_cell_angle_beta   111.41737337
_cell_angle_gamma   70.49350188
_symmetry_Int_Tables_number   1
_chemical_formula_structural   Ti3NiC4
_chemical_formula_sum   'Ti12 Ni4 C16'
_cell_volume   303.36234885
_cell_formula_units_Z   4
loop_
 _symmetry_equiv_pos_site_id
 _symmetry_equiv_pos_as_xyz
  1  'x, y, z'
loop_
 _atom_site_type_symbol
 _atom_site_label
 _atom_site_symmetry_multiplicity
 _atom_site_fract_x
 _atom_site_fract_y
 _atom_site_fract_z
 _atom_site_occupancy
  Ni  Ni0  1  0.55922021  0.05670977  0.75273029  1
  Ni  Ni1  1  0.36760736  0.37798423  0.49807984  1
  Ni  Ni2  1  0.82276430  0.31802700  0.75338868  1
  Ni  Ni3  1  0.69047147  0.18620947  0.24942125  1
  C  C4  1  0.50463981  0.00397491  0.00696914  1
  C  C5  1  0.56404486  0.54809937  0.74304298  1
  C  C6  1  0.37645001  0.87440543  0.49809305  1
  C  C7  1  0.44428626  0.42662595  0.25405479  1
  C  C8  1  0.25334523  0.74827411  0.99925168  1
  C  C9  1  0.06198765  0.06281954  0.74725297  1
  C  C10  1  0.31847081  0.30546467  0.74294222  1
  C  C11  1  0.11989668  0.62802476  0.50056491  1
  C  C12  1  0.93324567  0.93893760  0.24881181  1
  C  C13  1  0.18803207  0.18886159  0.24879499  1
  C  C14  1  0.00336979  0.50009514  0.00530291  1
  C  C15  1  0.81115675  0.81490486  0.75238058  1
  C  C16  1  0.87183797  0.36943626  0.49533636  1
  C  C17  1  0.68558783  0.68906479  0.25105474  1
  C  C18  1  0.74573111  0.24246911  0.98210111  1
  C  C19  1  0.62047756  0.16133090  0.52570225  1
  Ti  Ti20  1  0.50454114  0.48796702  0.99230940  1
  Ti  Ti21  1  0.44050037  0.94787602  0.25985951  1
  Ti  Ti22  1  0.25388453  0.24774277  0.99894857  1
  Ti  Ti23  1  0.06223022  0.56015723  0.74666983  1
  Ti  Ti24  1  0.31394850  0.81068361  0.74984042  1
  Ti  Ti25  1  0.12343414  0.12500375  0.49768317  1
  Ti  Ti26  1  0.93317483  0.43536740  0.24476100  1
  Ti  Ti27  1  0.18878958  0.68518715  0.25138922  1
  Ti  Ti28  1  0.99679888  0.00158143  0.99901529  1
  Ti  Ti29  1  0.86597018  0.88956063  0.50542009  1
  Ti  Ti30  1  0.74878550  0.75165356  0.00027645  1
  Ti  Ti31  1  0.62531870  0.61549994  0.49855052  1
