# generated using pymatgen
data_Ti3MoC4
_symmetry_space_group_name_H-M   'P 1'
_cell_length_a   7.44250216
_cell_length_b   7.44648429
_cell_length_c   6.79264585
_cell_angle_alpha   111.41447895
_cell_angle_beta   111.45818200
_cell_angle_gamma   70.53272405
_symmetry_Int_Tables_number   1
_chemical_formula_structural   Ti3MoC4
_chemical_formula_sum   'Ti12 Mo4 C16'
_cell_volume   317.38832740
_cell_formula_units_Z   4
loop_
 _symmetry_equiv_pos_site_id
 _symmetry_equiv_pos_as_xyz
  1  'x, y, z'
loop_
 _atom_site_type_symbol
 _atom_site_label
 _atom_site_symmetry_multiplicity
 _atom_site_fract_x
 _atom_site_fract_y
 _atom_site_fract_z
 _atom_site_occupancy
  Mo  Mo0  1  0.56318093  0.06161933  0.74874855  1
  Mo  Mo1  1  0.37597484  0.37403339  0.50151546  1
  Mo  Mo2  1  0.80951537  0.31128612  0.75122352  1
  Mo  Mo3  1  0.69015652  0.18638802  0.24738309  1
  C  C4  1  0.49907424  0.99929728  0.99817117  1
  C  C5  1  0.56173187  0.56531791  0.75137808  1
  C  C6  1  0.37499381  0.87486553  0.49890029  1
  C  C7  1  0.43686867  0.43914520  0.24954533  1
  C  C8  1  0.24992340  0.75040672  0.99921825  1
  C  C9  1  0.06301455  0.06240028  0.74915306  1
  C  C10  1  0.30997100  0.31385202  0.75152256  1
  C  C11  1  0.12431450  0.62487519  0.49992484  1
  C  C12  1  0.93816630  0.93704274  0.24926277  1
  C  C13  1  0.18721607  0.18751978  0.24923216  1
  C  C14  1  0.00024046  0.49992204  0.00203667  1
  C  C15  1  0.81327268  0.81185542  0.75135687  1
  C  C16  1  0.87609435  0.37599801  0.50208341  1
  C  C17  1  0.68725478  0.68707461  0.25016321  1
  C  C18  1  0.75144583  0.25134744  0.00271925  1
  C  C19  1  0.62598896  0.12017844  0.49572381  1
  Ti  Ti20  1  0.49755668  0.50211718  0.00154214  1
  Ti  Ti21  1  0.43859569  0.93789001  0.24867869  1
  Ti  Ti22  1  0.24928336  0.25210405  0.99891085  1
  Ti  Ti23  1  0.06054184  0.56258689  0.74945285  1
  Ti  Ti24  1  0.31290809  0.81327129  0.75107374  1
  Ti  Ti25  1  0.12545714  0.12538303  0.50074836  1
  Ti  Ti26  1  0.93731174  0.43735947  0.25112078  1
  Ti  Ti27  1  0.18695513  0.68898419  0.25020256  1
  Ti  Ti28  1  0.00303328  0.00046494  0.00137645  1
  Ti  Ti29  1  0.87629727  0.87246591  0.49939962  1
  Ti  Ti30  1  0.74949549  0.74756318  0.99841996  1
  Ti  Ti31  1  0.62416517  0.62538438  0.49981164  1
