# generated using pymatgen
data_Ti3MoC4
_symmetry_space_group_name_H-M   'P 1'
_cell_length_a   8.03733725
_cell_length_b   8.03878777
_cell_length_c   5.26390855
_cell_angle_alpha   102.57604247
_cell_angle_beta   102.54252221
_cell_angle_gamma   98.23542911
_symmetry_Int_Tables_number   1
_chemical_formula_structural   Ti3MoC4
_chemical_formula_sum   'Ti12 Mo4 C16'
_cell_volume   317.47656254
_cell_formula_units_Z   4
loop_
 _symmetry_equiv_pos_site_id
 _symmetry_equiv_pos_as_xyz
  1  'x, y, z'
loop_
 _atom_site_type_symbol
 _atom_site_label
 _atom_site_symmetry_multiplicity
 _atom_site_fract_x
 _atom_site_fract_y
 _atom_site_fract_z
 _atom_site_occupancy
  Mo  Mo0  1  0.38254855  0.12471269  0.01886231  1
  Mo  Mo1  1  0.25060719  0.25061905  0.50245185  1
  Mo  Mo2  1  0.12575760  0.87536373  0.49513670  1
  Mo  Mo3  1  0.86649009  0.12547923  0.49062691  1
  C  C4  1  0.50014270  0.75068173  0.25020452  1
  C  C5  1  0.24946669  0.99685666  0.24760003  1
  C  C6  1  0.37550701  0.37778378  0.25120520  1
  C  C7  1  0.12488601  0.62397706  0.25121913  1
  C  C8  1  0.87499455  0.87423510  0.24740172  1
  C  C9  1  0.00006402  0.25032686  0.24664190  1
  C  C10  1  0.75022483  0.50042060  0.25096773  1
  C  C11  1  0.62499962  0.12531100  0.25269251  1
  C  C12  1  0.37548792  0.87418985  0.74856091  1
  C  C13  1  0.50082291  0.24972461  0.75030335  1
  C  C14  1  0.24907294  0.49970428  0.75062847  1
  C  C15  1  0.00048417  0.75119730  0.74896095  1
  C  C16  1  0.74975468  0.99960704  0.75000276  1
  C  C17  1  0.12455460  0.12650588  0.75468680  1
  C  C18  1  0.87565292  0.37579222  0.75010189  1
  C  C19  1  0.62450982  0.62431807  0.74915935  1
  Ti  Ti20  1  0.12344554  0.37613521  0.00385332  1
  Ti  Ti21  1  0.25100578  0.74812505  0.99760080  1
  Ti  Ti22  1  0.99881244  0.99967361  0.99614316  1
  Ti  Ti23  1  0.75016675  0.25188849  0.99775204  1
  Ti  Ti24  1  0.87445066  0.62548811  0.99685917  1
  Ti  Ti25  1  0.62549320  0.87298280  0.99579084  1
  Ti  Ti26  1  0.49992701  0.49954343  0.00232944  1
  Ti  Ti27  1  0.37659696  0.62439002  0.50060215  1
  Ti  Ti28  1  0.62557062  0.37761015  0.50350721  1
  Ti  Ti29  1  0.99898199  0.50014190  0.49993414  1
  Ti  Ti30  1  0.74980569  0.74945066  0.49665444  1
  Ti  Ti31  1  0.49971457  0.99776381  0.50155832  1
