# generated using pymatgen
data_Ti3MoC4
_symmetry_space_group_name_H-M   'P 1'
_cell_length_a   5.25915077
_cell_length_b   5.26175232
_cell_length_c   6.08104309
_cell_angle_alpha   89.94191817
_cell_angle_beta   106.87230153
_cell_angle_gamma   99.59819392
_symmetry_Int_Tables_number   1
_chemical_formula_structural   Ti3MoC4
_chemical_formula_sum   'Ti6 Mo2 C8'
_cell_volume   158.57854478
_cell_formula_units_Z   2
loop_
 _symmetry_equiv_pos_site_id
 _symmetry_equiv_pos_as_xyz
  1  'x, y, z'
loop_
 _atom_site_type_symbol
 _atom_site_label
 _atom_site_symmetry_multiplicity
 _atom_site_fract_x
 _atom_site_fract_y
 _atom_site_fract_z
 _atom_site_occupancy
  Mo  Mo0  1  0.99629010  0.99522509  0.99850742  1
  Mo  Mo1  1  0.50370990  0.25477491  0.87649258  1
  C  C2  1  0.75000000  0.62500000  0.43750000  1
  C  C3  1  0.24839172  0.37711083  0.06313096  1
  C  C4  1  0.75000000  0.62500000  0.93750000  1
  C  C5  1  0.24877235  0.37437593  0.56124893  1
  C  C6  1  0.25122765  0.87562407  0.31375107  1
  C  C7  1  0.74799473  0.12315592  0.18942565  1
  C  C8  1  0.25160828  0.87288917  0.81186904  1
  C  C9  1  0.75200527  0.12684408  0.68557435  1
  Ti  Ti10  1  0.49578796  0.75176407  0.62324333  1
  Ti  Ti11  1  0.00421204  0.49823593  0.25175667  1
  Ti  Ti12  1  0.49966153  0.74741053  0.12560060  1
  Ti  Ti13  1  0.00033847  0.50258947  0.74939940  1
  Ti  Ti14  1  0.99723953  0.00104069  0.49918236  1
  Ti  Ti15  1  0.50276047  0.24895931  0.37581764  1
