# generated using pymatgen
data_Ti3MoC4
_symmetry_space_group_name_H-M   'P 1'
_cell_length_a   6.77976382
_cell_length_b   6.77976382
_cell_length_c   10.09658656
_cell_angle_alpha   127.30292281
_cell_angle_beta   127.30292281
_cell_angle_gamma   25.88737110
_symmetry_Int_Tables_number   1
_chemical_formula_structural   Ti3MoC4
_chemical_formula_sum   'Ti6 Mo2 C8'
_cell_volume   158.68557793
_cell_formula_units_Z   2
loop_
 _symmetry_equiv_pos_site_id
 _symmetry_equiv_pos_as_xyz
  1  'x, y, z'
loop_
 _atom_site_type_symbol
 _atom_site_label
 _atom_site_symmetry_multiplicity
 _atom_site_fract_x
 _atom_site_fract_y
 _atom_site_fract_z
 _atom_site_occupancy
  Mo  Mo0  1  0.25060318  0.25060318  0.75282347  1
  Mo  Mo1  1  0.12439682  0.12439682  0.37217653  1
  C  C2  1  0.06207874  0.06207874  0.68746144  1
  C  C3  1  0.68750000  0.68750000  0.56250000  1
  C  C4  1  0.18750000  0.18750000  0.06250000  1
  C  C5  1  0.31292126  0.31292126  0.43753856  1
  C  C6  1  0.81259352  0.81259352  0.93848582  1
  C  C7  1  0.43736522  0.43736522  0.81271451  1
  C  C8  1  0.93763478  0.93763478  0.31228549  1
  C  C9  1  0.56240648  0.56240648  0.18651418  1
  Ti  Ti10  1  0.87644478  0.87644478  0.62637161  1
  Ti  Ti11  1  0.37302836  0.37302836  0.12217019  1
  Ti  Ti12  1  0.49855522  0.49855522  0.49862839  1
  Ti  Ti13  1  0.00197164  0.00197164  0.00282981  1
  Ti  Ti14  1  0.62321882  0.62321882  0.87500458  1
  Ti  Ti15  1  0.75178118  0.75178118  0.24999542  1
