# generated using pymatgen
data_Ti3WC4
_symmetry_space_group_name_H-M   'P 1'
_cell_length_a   7.45017020
_cell_length_b   7.45099943
_cell_length_c   6.79990743
_cell_angle_alpha   111.43600844
_cell_angle_beta   111.43888414
_cell_angle_gamma   70.50291875
_symmetry_Int_Tables_number   1
_chemical_formula_structural   Ti3WC4
_chemical_formula_sum   'Ti12 W4 C16'
_cell_volume   318.20004528
_cell_formula_units_Z   4
loop_
 _symmetry_equiv_pos_site_id
 _symmetry_equiv_pos_as_xyz
  1  'x, y, z'
loop_
 _atom_site_type_symbol
 _atom_site_label
 _atom_site_symmetry_multiplicity
 _atom_site_fract_x
 _atom_site_fract_y
 _atom_site_fract_z
 _atom_site_occupancy
  W  W0  1  0.56439064  0.05827844  0.74779564  1
  W  W1  1  0.36910663  0.37905661  0.49944102  1
  W  W2  1  0.81424703  0.31156153  0.75432170  1
  W  W3  1  0.69117545  0.18441227  0.24719337  1
  C  C4  1  0.49979049  0.99936182  0.99833579  1
  C  C5  1  0.56191843  0.56290911  0.75012577  1
  C  C6  1  0.37592593  0.87563828  0.49997433  1
  C  C7  1  0.43726919  0.43810808  0.25005137  1
  C  C8  1  0.25003497  0.75051851  0.99983571  1
  C  C9  1  0.06242980  0.06335931  0.74979878  1
  C  C10  1  0.31170048  0.31304972  0.75032640  1
  C  C11  1  0.12472774  0.62437820  0.49970718  1
  C  C12  1  0.93748289  0.93784803  0.24965186  1
  C  C13  1  0.18803375  0.18848775  0.25064947  1
  C  C14  1  0.99951142  0.49937378  0.00018872  1
  C  C15  1  0.81217174  0.81249273  0.75065257  1
  C  C16  1  0.87529380  0.37497692  0.50200501  1
  C  C17  1  0.68704621  0.68715327  0.25009613  1
  C  C18  1  0.75126140  0.25068906  0.00201903  1
  C  C19  1  0.62524932  0.12239373  0.49702232  1
  Ti  Ti20  1  0.49690544  0.50320928  0.00213210  1
  Ti  Ti21  1  0.43879087  0.93718717  0.24821730  1
  Ti  Ti22  1  0.24961318  0.25221277  0.99877178  1
  Ti  Ti23  1  0.06000757  0.56355950  0.74996694  1
  Ti  Ti24  1  0.31276638  0.81430366  0.75219544  1
  Ti  Ti25  1  0.12591433  0.12503045  0.50080405  1
  Ti  Ti26  1  0.93586983  0.43744186  0.25070244  1
  Ti  Ti27  1  0.18631618  0.68997124  0.24931278  1
  Ti  Ti28  1  0.00447532  0.99988214  0.00223109  1
  Ti  Ti29  1  0.87745096  0.87072765  0.49901532  1
  Ti  Ti30  1  0.74934229  0.74709863  0.99849972  1
  Ti  Ti31  1  0.62378038  0.62532847  0.49895886  1
