# generated using pymatgen
data_Ti3WC4
_symmetry_space_group_name_H-M   'P 1'
_cell_length_a   8.04874077
_cell_length_b   8.04827689
_cell_length_c   5.26885405
_cell_angle_alpha   102.61609406
_cell_angle_beta   102.55345424
_cell_angle_gamma   98.20947780
_symmetry_Int_Tables_number   1
_chemical_formula_structural   Ti3WC4
_chemical_formula_sum   'Ti12 W4 C16'
_cell_volume   318.55347709
_cell_formula_units_Z   4
loop_
 _symmetry_equiv_pos_site_id
 _symmetry_equiv_pos_as_xyz
  1  'x, y, z'
loop_
 _atom_site_type_symbol
 _atom_site_label
 _atom_site_symmetry_multiplicity
 _atom_site_fract_x
 _atom_site_fract_y
 _atom_site_fract_z
 _atom_site_occupancy
  W  W0  1  0.38284974  0.12531756  0.01678767  1
  W  W1  1  0.25071665  0.25401435  0.50619518  1
  W  W2  1  0.12503936  0.87003010  0.49160287  1
  W  W3  1  0.86620138  0.12722929  0.49384198  1
  C  C4  1  0.50034508  0.75048610  0.24981611  1
  C  C5  1  0.24942270  0.99825670  0.24880802  1
  C  C6  1  0.37492986  0.37630903  0.25129431  1
  C  C7  1  0.12461589  0.62468478  0.25115450  1
  C  C8  1  0.87624361  0.87547639  0.24897357  1
  C  C9  1  0.00069876  0.25005283  0.24867319  1
  C  C10  1  0.75000346  0.50031443  0.25048494  1
  C  C11  1  0.62468236  0.12486852  0.25220377  1
  C  C12  1  0.37463091  0.87508844  0.74862318  1
  C  C13  1  0.49944341  0.24946033  0.75037188  1
  C  C14  1  0.24928587  0.49894268  0.75058450  1
  C  C15  1  0.00100270  0.75139570  0.74761934  1
  C  C16  1  0.75046326  0.00016664  0.74937678  1
  C  C17  1  0.12493409  0.12577902  0.75302344  1
  C  C18  1  0.87534097  0.37492093  0.74960854  1
  C  C19  1  0.62490369  0.62478758  0.74967946  1
  Ti  Ti20  1  0.12293912  0.37738940  0.00525820  1
  Ti  Ti21  1  0.25163228  0.74715623  0.99695012  1
  Ti  Ti22  1  0.99858451  0.99942092  0.99433193  1
  Ti  Ti23  1  0.74971713  0.25229550  0.99931443  1
  Ti  Ti24  1  0.87342596  0.62475131  0.99462407  1
  Ti  Ti25  1  0.62598586  0.87229111  0.99478805  1
  Ti  Ti26  1  0.50100288  0.50054501  0.00456863  1
  Ti  Ti27  1  0.37789654  0.62437645  0.50126990  1
  Ti  Ti28  1  0.62549676  0.37827281  0.50472000  1
  Ti  Ti29  1  0.99784494  0.50051574  0.49912591  1
  Ti  Ti30  1  0.74930482  0.74859046  0.49574562  1
  Ti  Ti31  1  0.50041536  0.99681362  0.50057992  1
