# generated using pymatgen
data_Ti3WC4
_symmetry_space_group_name_H-M   'P 1'
_cell_length_a   6.78321453
_cell_length_b   6.78321454
_cell_length_c   10.10598245
_cell_angle_alpha   127.28559427
_cell_angle_beta   127.28559426
_cell_angle_gamma   25.92463878
_symmetry_Int_Tables_number   1
_chemical_formula_structural   Ti3WC4
_chemical_formula_sum   'Ti6 W2 C8'
_cell_volume   159.24037617
_cell_formula_units_Z   2
loop_
 _symmetry_equiv_pos_site_id
 _symmetry_equiv_pos_as_xyz
  1  'x, y, z'
loop_
 _atom_site_type_symbol
 _atom_site_label
 _atom_site_symmetry_multiplicity
 _atom_site_fract_x
 _atom_site_fract_y
 _atom_site_fract_z
 _atom_site_occupancy
  W  W0  1  0.25063312  0.25063312  0.75277305  1
  W  W1  1  0.12436688  0.12436688  0.37222695  1
  C  C2  1  0.06255581  0.06255581  0.68754120  1
  C  C3  1  0.68750000  0.68750000  0.56250000  1
  C  C4  1  0.18750000  0.18750000  0.06250000  1
  C  C5  1  0.31244419  0.31244419  0.43745880  1
  C  C6  1  0.81217849  0.81217849  0.93738379  1
  C  C7  1  0.43682495  0.43682495  0.81260455  1
  C  C8  1  0.93817505  0.93817505  0.31239545  1
  C  C9  1  0.56282151  0.56282151  0.18761621  1
  Ti  Ti10  1  0.87709881  0.87709881  0.62647913  1
  Ti  Ti11  1  0.37244523  0.37244523  0.12156777  1
  Ti  Ti12  1  0.49790119  0.49790119  0.49852087  1
  Ti  Ti13  1  0.00255477  0.00255477  0.00343223  1
  Ti  Ti14  1  0.62294490  0.62294490  0.87548645  1
  Ti  Ti15  1  0.75205510  0.75205510  0.24951355  1
