# generated using pymatgen
data_TiNiC2
_symmetry_space_group_name_H-M   'P 1'
_cell_length_a   7.06564551
_cell_length_b   7.29748454
_cell_length_c   6.57999037
_cell_angle_alpha   111.29644179
_cell_angle_beta   112.00734789
_cell_angle_gamma   71.08668253
_symmetry_Int_Tables_number   1
_chemical_formula_structural   TiNiC2
_chemical_formula_sum   'Ti8 Ni8 C16'
_cell_volume   286.04524390
_cell_formula_units_Z   8
loop_
 _symmetry_equiv_pos_site_id
 _symmetry_equiv_pos_as_xyz
  1  'x, y, z'
loop_
 _atom_site_type_symbol
 _atom_site_label
 _atom_site_symmetry_multiplicity
 _atom_site_fract_x
 _atom_site_fract_y
 _atom_site_fract_z
 _atom_site_occupancy
  Ni  Ni0  1  0.25113529  0.24862044  0.99065744  1
  Ni  Ni1  1  0.93964179  0.43650230  0.26078192  1
  Ni  Ni2  1  0.20004607  0.69816492  0.26050288  1
  Ni  Ni3  1  0.00759644  0.98629001  0.99684404  1
  Ni  Ni4  1  0.80431057  0.31706112  0.74649418  1
  Ni  Ni5  1  0.87394283  0.87649026  0.50521292  1
  Ni  Ni6  1  0.68454819  0.18996996  0.25062669  1
  Ni  Ni7  1  0.73696270  0.74391567  0.98606332  1
  C  C8  1  0.50684678  0.00778154  0.00199783  1
  C  C9  1  0.55598568  0.56238593  0.73762369  1
  C  C10  1  0.37651903  0.88335654  0.50352691  1
  C  C11  1  0.43100474  0.43420022  0.23634261  1
  C  C12  1  0.25420758  0.74738141  0.00767025  1
  C  C13  1  0.03879649  0.07702575  0.76411862  1
  C  C14  1  0.31285461  0.30964532  0.74972876  1
  C  C15  1  0.10432681  0.63464155  0.48654900  1
  C  C16  1  0.91138781  0.91615854  0.23304156  1
  C  C17  1  0.16795580  0.18793048  0.22689945  1
  C  C18  1  0.00419655  0.50713110  0.04294658  1
  C  C19  1  0.82113137  0.80871590  0.76071481  1
  C  C20  1  0.86781993  0.36901564  0.50112124  1
  C  C21  1  0.71404095  0.68729651  0.24775158  1
  C  C22  1  0.78742590  0.24043913  0.01218256  1
  C  C23  1  0.64496082  0.13003229  0.49553501  1
  Ti  Ti24  1  0.52096825  0.49291707  0.99815177  1
  Ti  Ti25  1  0.58189272  0.06385702  0.75600309  1
  Ti  Ti26  1  0.35688805  0.38273983  0.48343204  1
  Ti  Ti27  1  0.44714464  0.94286468  0.24709680  1
  Ti  Ti28  1  0.06001028  0.55501410  0.77736850  1
  Ti  Ti29  1  0.30248427  0.81856532  0.74928574  1
  Ti  Ti30  1  0.10496574  0.11890966  0.48751732  1
  Ti  Ti31  1  0.62800136  0.62497984  0.49621092  1
