# generated using pymatgen
data_TiNiC2
_symmetry_space_group_name_H-M   'P 1'
_cell_length_a   7.64874943
_cell_length_b   7.88060240
_cell_length_c   7.89105036
_cell_angle_alpha   136.39117037
_cell_angle_beta   114.90992625
_cell_angle_gamma   82.32430700
_symmetry_Int_Tables_number   1
_chemical_formula_structural   TiNiC2
_chemical_formula_sum   'Ti8 Ni8 C16'
_cell_volume   286.16127544
_cell_formula_units_Z   8
loop_
 _symmetry_equiv_pos_site_id
 _symmetry_equiv_pos_as_xyz
  1  'x, y, z'
loop_
 _atom_site_type_symbol
 _atom_site_label
 _atom_site_symmetry_multiplicity
 _atom_site_fract_x
 _atom_site_fract_y
 _atom_site_fract_z
 _atom_site_occupancy
  Ni  Ni0  1  0.49465294  0.00571569  0.50832082  1
  Ni  Ni1  1  0.74602259  0.25163726  0.49081700  1
  Ni  Ni2  1  0.00700151  0.00887223  0.00885689  1
  Ni  Ni3  1  0.61799849  0.61612777  0.49114311  1
  Ni  Ni4  1  0.88295671  0.86978839  0.50044126  1
  Ni  Ni5  1  0.87897741  0.37336274  0.00918300  1
  Ni  Ni6  1  0.13034706  0.61928431  0.99167918  1
  Ni  Ni7  1  0.74204329  0.75521161  0.99955874  1
  C  C8  1  0.25343580  0.49803291  0.75400892  1
  C  C9  1  0.86576542  0.64614556  0.77891502  1
  C  C10  1  0.50576444  0.74645955  0.74278562  1
  C  C11  1  0.11923556  0.87854045  0.75721438  1
  C  C12  1  0.75923458  0.97885444  0.72108498  1
  C  C13  1  0.75597443  0.51002925  0.26331189  1
  C  C14  1  0.37156420  0.12696709  0.74599108  1
  C  C15  1  0.37761694  0.64041213  0.25799536  1
  C  C16  1  0.96456776  0.25206293  0.74184861  1
  C  C17  1  0.97386289  0.71787337  0.20340654  1
  C  C18  1  0.66043224  0.37293707  0.75815139  1
  C  C19  1  0.65113711  0.90712663  0.29659346  1
  C  C20  1  0.24738306  0.98458787  0.24200464  1
  C  C21  1  0.86902557  0.11497075  0.23668811  1
  C  C22  1  0.50430523  0.25357267  0.24959190  1
  C  C23  1  0.12069477  0.37142733  0.25040810  1
  Ti  Ti24  1  0.10608943  0.10693432  0.47918973  1
  Ti  Ti25  1  0.38309285  0.37087301  0.50349562  1
  Ti  Ti26  1  0.99260366  0.50825429  0.52018758  1
  Ti  Ti27  1  0.63239634  0.11674571  0.97981242  1
  Ti  Ti28  1  0.23657978  0.74388578  0.48809938  1
  Ti  Ti29  1  0.24190715  0.25412699  0.99650438  1
  Ti  Ti30  1  0.51891057  0.51806568  0.02081027  1
  Ti  Ti31  1  0.38842022  0.88111422  0.01190062  1
