# generated using pymatgen
data_TiNiC2
_symmetry_space_group_name_H-M   'P 1'
_cell_length_a   5.16446315
_cell_length_b   3.01546200
_cell_length_c   9.34142377
_cell_angle_alpha   90.00000000
_cell_angle_beta   99.24993094
_cell_angle_gamma   90.00000000
_symmetry_Int_Tables_number   1
_chemical_formula_structural   TiNiC2
_chemical_formula_sum   'Ti4 Ni4 C8'
_cell_volume   143.58456482
_cell_formula_units_Z   4
loop_
 _symmetry_equiv_pos_site_id
 _symmetry_equiv_pos_as_xyz
  1  'x, y, z'
loop_
 _atom_site_type_symbol
 _atom_site_label
 _atom_site_symmetry_multiplicity
 _atom_site_fract_x
 _atom_site_fract_y
 _atom_site_fract_z
 _atom_site_occupancy
  Ni  Ni0  1  0.74388179  0.00000000  0.25430821  1
  Ni  Ni1  1  0.24282236  0.50000000  0.24548768  1
  Ni  Ni2  1  0.51308356  0.00000000  0.49904700  1
  Ni  Ni3  1  0.25955336  0.00000000  0.75883225  1
  C  C4  1  0.36639763  0.50000000  0.61938901  1
  C  C5  1  0.62507190  0.00000000  0.87851673  1
  C  C6  1  0.13273627  0.50000000  0.87503865  1
  C  C7  1  0.59195538  0.50000000  0.36079215  1
  C  C8  1  0.88336983  0.00000000  0.61840607  1
  C  C9  1  0.37425439  0.00000000  0.14178934  1
  C  C10  1  0.87690152  0.50000000  0.14151228  1
  C  C11  1  0.13674793  0.00000000  0.35626224  1
  Ti  Ti12  1  0.50450428  0.50000000  0.01588659  1
  Ti  Ti13  1  0.73826729  0.50000000  0.74166677  1
  Ti  Ti14  1  0.00133799  0.00000000  0.00660008  1
  Ti  Ti15  1  0.00911453  0.50000000  0.48646495  1
