# generated using pymatgen
data_TiMoC2
_symmetry_space_group_name_H-M   'P 1'
_cell_length_a   7.46563606
_cell_length_b   7.44742089
_cell_length_c   6.80919301
_cell_angle_alpha   111.46893262
_cell_angle_beta   111.31053083
_cell_angle_gamma   70.54567658
_symmetry_Int_Tables_number   1
_chemical_formula_structural   TiMoC2
_chemical_formula_sum   'Ti8 Mo8 C16'
_cell_volume   319.37437679
_cell_formula_units_Z   8
loop_
 _symmetry_equiv_pos_site_id
 _symmetry_equiv_pos_as_xyz
  1  'x, y, z'
loop_
 _atom_site_type_symbol
 _atom_site_label
 _atom_site_symmetry_multiplicity
 _atom_site_fract_x
 _atom_site_fract_y
 _atom_site_fract_z
 _atom_site_occupancy
  Mo  Mo0  1  0.25335621  0.24683472  0.00022211  1
  Mo  Mo1  1  0.93708231  0.43442120  0.25796197  1
  Mo  Mo2  1  0.19359572  0.68509844  0.25155566  1
  Mo  Mo3  1  0.99996328  0.00527808  0.99880818  1
  Mo  Mo4  1  0.80959589  0.30996051  0.73728664  1
  Mo  Mo5  1  0.87384038  0.87150124  0.50887391  1
  Mo  Mo6  1  0.68268858  0.19379248  0.25001362  1
  Mo  Mo7  1  0.74843898  0.75581708  0.99269138  1
  C  C8  1  0.49898295  0.99900299  0.99739069  1
  C  C9  1  0.56037634  0.56234485  0.74764869  1
  C  C10  1  0.37508107  0.87603959  0.50075338  1
  C  C11  1  0.43827364  0.43978814  0.25240015  1
  C  C12  1  0.25166985  0.74899459  0.99949802  1
  C  C13  1  0.06631585  0.06086983  0.74767543  1
  C  C14  1  0.31303993  0.31353823  0.75132261  1
  C  C15  1  0.12709721  0.62374039  0.50312127  1
  C  C16  1  0.93797683  0.93891859  0.25335127  1
  C  C17  1  0.18988685  0.18535144  0.25428781  1
  C  C18  1  0.99925938  0.49959027  0.00013008  1
  C  C19  1  0.81111878  0.81077299  0.74785050  1
  C  C20  1  0.87711175  0.37705715  0.50364380  1
  C  C21  1  0.68687941  0.68846457  0.24901691  1
  C  C22  1  0.74673559  0.25147024  0.99482992  1
  C  C23  1  0.62140890  0.12429468  0.49813432  1
  Ti  Ti24  1  0.50145028  0.50115800  0.00060455  1
  Ti  Ti25  1  0.56019354  0.06116364  0.74681764  1
  Ti  Ti26  1  0.37358148  0.37432409  0.50224592  1
  Ti  Ti27  1  0.43737348  0.93753708  0.25104258  1
  Ti  Ti28  1  0.06453839  0.56389474  0.75088402  1
  Ti  Ti29  1  0.31298169  0.80955706  0.74985355  1
  Ti  Ti30  1  0.12646428  0.12469289  0.50075529  1
  Ti  Ti31  1  0.62364118  0.62473019  0.49932807  1
