# generated using pymatgen
data_TiMoC2
_symmetry_space_group_name_H-M   'P 1'
_cell_length_a   8.07004233
_cell_length_b   8.04217676
_cell_length_c   8.04216498
_cell_angle_alpha   135.49011389
_cell_angle_beta   115.37070087
_cell_angle_gamma   81.70091269
_symmetry_Int_Tables_number   1
_chemical_formula_structural   TiMoC2
_chemical_formula_sum   'Ti8 Mo8 C16'
_cell_volume   319.72158372
_cell_formula_units_Z   8
loop_
 _symmetry_equiv_pos_site_id
 _symmetry_equiv_pos_as_xyz
  1  'x, y, z'
loop_
 _atom_site_type_symbol
 _atom_site_label
 _atom_site_symmetry_multiplicity
 _atom_site_fract_x
 _atom_site_fract_y
 _atom_site_fract_z
 _atom_site_occupancy
  Mo  Mo0  1  0.49263470  0.99649013  0.49111206  1
  Mo  Mo1  1  0.74893164  0.23123343  0.48202883  1
  Mo  Mo2  1  0.00343024  0.00983644  0.01490766  1
  Mo  Mo3  1  0.62156976  0.61516356  0.48509234  1
  Mo  Mo4  1  0.87204949  0.86974407  0.48688317  1
  Mo  Mo5  1  0.87606836  0.39376657  0.01797117  1
  Mo  Mo6  1  0.13236530  0.62850987  0.00888794  1
  Mo  Mo7  1  0.75295051  0.75525593  0.01311683  1
  C  C8  1  0.24959797  0.50057673  0.75040333  1
  C  C9  1  0.87320042  0.62210302  0.74868635  1
  C  C10  1  0.50168733  0.75021400  0.74974880  1
  C  C11  1  0.12331267  0.87478600  0.75025120  1
  C  C12  1  0.75179958  0.00289698  0.75131365  1
  C  C13  1  0.74877501  0.49529829  0.24747562  1
  C  C14  1  0.37540203  0.12442327  0.74959667  1
  C  C15  1  0.37461496  0.62004906  0.24761329  1
  C  C16  1  0.00028935  0.25083082  0.75216381  1
  C  C17  1  0.00945822  0.75806920  0.25902207  1
  C  C18  1  0.62471065  0.37416918  0.74783619  1
  C  C19  1  0.61554178  0.86693080  0.24097793  1
  C  C20  1  0.25038504  0.00495094  0.25238671  1
  C  C21  1  0.87622499  0.12970171  0.25252438  1
  C  C22  1  0.49766605  0.24694435  0.24651412  1
  C  C23  1  0.12733395  0.37805565  0.25348588  1
  Ti  Ti24  1  0.12505969  0.12486425  0.50005083  1
  Ti  Ti25  1  0.37470605  0.37725633  0.50139475  1
  Ti  Ti26  1  0.00011328  0.50232930  0.50186220  1
  Ti  Ti27  1  0.62488672  0.12267070  0.99813780  1
  Ti  Ti28  1  0.24929562  0.74900491  0.50095519  1
  Ti  Ti29  1  0.25029395  0.24774367  0.99860525  1
  Ti  Ti30  1  0.49994031  0.50013575  -0.00005083  1
  Ti  Ti31  1  0.37570438  0.87599509  0.99904481  1
