# generated using pymatgen
data_TiMoC2
_symmetry_space_group_name_H-M   'P 1'
_cell_length_a   5.30494452
_cell_length_b   5.25125593
_cell_length_c   6.06713630
_cell_angle_alpha   90.02047529
_cell_angle_beta   106.59618854
_cell_angle_gamma   99.54499497
_symmetry_Int_Tables_number   1
_chemical_formula_structural   TiMoC2
_chemical_formula_sum   'Ti4 Mo4 C8'
_cell_volume   159.52885477
_cell_formula_units_Z   4
loop_
 _symmetry_equiv_pos_site_id
 _symmetry_equiv_pos_as_xyz
  1  'x, y, z'
loop_
 _atom_site_type_symbol
 _atom_site_label
 _atom_site_symmetry_multiplicity
 _atom_site_fract_x
 _atom_site_fract_y
 _atom_site_fract_z
 _atom_site_occupancy
  Mo  Mo0  1  0.50000000  0.75000000  0.62500000  1
  Mo  Mo1  1  0.50000000  0.75000000  0.12500000  1
  Mo  Mo2  1  0.50000000  0.25000000  0.37500000  1
  Mo  Mo3  1  0.50000000  0.25000000  0.87500000  1
  C  C4  1  0.75400019  0.62580298  0.43845887  1
  C  C5  1  0.24599981  0.37419702  0.06154113  1
  C  C6  1  0.75400019  0.62580298  0.93845887  1
  C  C7  1  0.24599981  0.37419702  0.56154113  1
  C  C8  1  0.24599981  0.87419702  0.31154113  1
  C  C9  1  0.75400019  0.12580298  0.18845887  1
  C  C10  1  0.24599981  0.87419702  0.81154113  1
  C  C11  1  0.75400019  0.12580298  0.68845887  1
  Ti  Ti12  1  -0.00000000  0.50000000  0.25000000  1
  Ti  Ti13  1  -0.00000000  0.50000000  0.75000000  1
  Ti  Ti14  1  -0.00000000  -0.00000000  0.50000000  1
  Ti  Ti15  1  -0.00000000  -0.00000000  0.00000000  1
