# generated using pymatgen
data_TiWC2
_symmetry_space_group_name_H-M   'P 1'
_cell_length_a   7.47840900
_cell_length_b   7.46470980
_cell_length_c   6.82918973
_cell_angle_alpha   111.54322217
_cell_angle_beta   111.40341978
_cell_angle_gamma   70.50700244
_symmetry_Int_Tables_number   1
_chemical_formula_structural   TiWC2
_chemical_formula_sum   'Ti8 W8 C16'
_cell_volume   321.24872939
_cell_formula_units_Z   8
loop_
 _symmetry_equiv_pos_site_id
 _symmetry_equiv_pos_as_xyz
  1  'x, y, z'
loop_
 _atom_site_type_symbol
 _atom_site_label
 _atom_site_symmetry_multiplicity
 _atom_site_fract_x
 _atom_site_fract_y
 _atom_site_fract_z
 _atom_site_occupancy
  W  W0  1  0.25486587  0.24492119  0.99680214  1
  W  W1  1  0.93550034  0.43468303  0.26195446  1
  W  W2  1  0.19597585  0.68555769  0.25115041  1
  W  W3  1  0.00189145  0.00130546  0.00102353  1
  W  W4  1  0.80849139  0.31454718  0.73703978  1
  W  W5  1  0.87473365  0.87120435  0.51144998  1
  W  W6  1  0.68195991  0.19517193  0.24961593  1
  W  W7  1  0.74618778  0.75653432  0.98924685  1
  C  C8  1  0.49911052  0.99948251  0.99747581  1
  C  C9  1  0.56059899  0.56238091  0.74831470  1
  C  C10  1  0.37398248  0.87526954  0.49917748  1
  C  C11  1  0.43787786  0.43903387  0.25168433  1
  C  C12  1  0.25143358  0.74921512  0.00003498  1
  C  C13  1  0.06471622  0.06174032  0.74844407  1
  C  C14  1  0.31288244  0.31299900  0.75208723  1
  C  C15  1  0.12669201  0.62402495  0.50124052  1
  C  C16  1  0.93716157  0.93824578  0.25386392  1
  C  C17  1  0.18908544  0.18607832  0.25239148  1
  C  C18  1  0.99870341  0.49933722  0.00152769  1
  C  C19  1  0.81098178  0.81067673  0.74765322  1
  C  C20  1  0.87675185  0.37712621  0.50392196  1
  C  C21  1  0.68869523  0.68902761  0.24832791  1
  C  C22  1  0.74870235  0.25114753  0.99502870  1
  C  C23  1  0.62323980  0.12442046  0.49885394  1
  Ti  Ti24  1  0.50085301  0.50212904  0.00095794  1
  Ti  Ti25  1  0.55964819  0.06107154  0.74574887  1
  Ti  Ti26  1  0.37279427  0.37439698  0.50334608  1
  Ti  Ti27  1  0.43857886  0.93747683  0.25192718  1
  Ti  Ti28  1  0.06455147  0.56316571  0.75050641  1
  Ti  Ti29  1  0.31357992  0.80817890  0.74965688  1
  Ti  Ti30  1  0.12667305  0.12440547  0.50063648  1
  Ti  Ti31  1  0.62309943  0.62504430  0.49890912  1
