# generated using pymatgen
data_TiWC2
_symmetry_space_group_name_H-M   'P 1'
_cell_length_a   8.08289570
_cell_length_b   8.06204246
_cell_length_c   8.06750702
_cell_angle_alpha   135.52228375
_cell_angle_beta   115.44752634
_cell_angle_gamma   81.69968487
_symmetry_Int_Tables_number   1
_chemical_formula_structural   TiWC2
_chemical_formula_sum   'Ti8 W8 C16'
_cell_volume   321.47694087
_cell_formula_units_Z   8
loop_
 _symmetry_equiv_pos_site_id
 _symmetry_equiv_pos_as_xyz
  1  'x, y, z'
loop_
 _atom_site_type_symbol
 _atom_site_label
 _atom_site_symmetry_multiplicity
 _atom_site_fract_x
 _atom_site_fract_y
 _atom_site_fract_z
 _atom_site_occupancy
  W  W0  1  0.49295944  0.00087094  0.49463416  1
  W  W1  1  0.74833156  0.23380936  0.47914884  1
  W  W2  1  0.00456578  0.01033303  0.01635605  1
  W  W3  1  0.62043422  0.61466697  0.48364395  1
  W  W4  1  0.87522553  0.86913535  0.48795151  1
  W  W5  1  0.87666844  0.39119064  0.02085116  1
  W  W6  1  0.13204056  0.62412906  0.00536584  1
  W  W7  1  0.74977447  0.75586465  0.01204849  1
  C  C8  1  0.24911708  0.50106245  0.75170289  1
  C  C9  1  0.87270887  0.62267138  0.74926123  1
  C  C10  1  0.50266176  0.74960723  0.74943005  1
  C  C11  1  0.12233824  0.87539277  0.75056995  1
  C  C12  1  0.75229113  0.00232862  0.75073877  1
  C  C13  1  0.74856513  0.49636460  0.24890261  1
  C  C14  1  0.37588292  0.12393755  0.74829711  1
  C  C15  1  0.37455030  0.62189118  0.24850707  1
  C  C16  1  0.99872720  0.24996489  0.75127145  1
  C  C17  1  0.00837800  0.75559117  0.25560111  1
  C  C18  1  0.62627280  0.37503511  0.74872855  1
  C  C19  1  0.61662200  0.86940883  0.24439889  1
  C  C20  1  0.25044970  0.00310882  0.25149293  1
  C  C21  1  0.87643487  0.12863540  0.25109739  1
  C  C22  1  0.49792827  0.24798822  0.24738580  1
  C  C23  1  0.12707173  0.37701178  0.25261420  1
  Ti  Ti24  1  0.12519115  0.12381152  0.49938756  1
  Ti  Ti25  1  0.37262370  0.37761263  0.50128344  1
  Ti  Ti26  1  0.00038018  0.50110774  0.50127367  1
  Ti  Ti27  1  0.62461982  0.12389226  0.99872633  1
  Ti  Ti28  1  0.24904592  0.74833978  0.50086415  1
  Ti  Ti29  1  0.25237630  0.24738737  0.99871656  1
  Ti  Ti30  1  0.49980885  0.50118848  0.00061244  1
  Ti  Ti31  1  0.37595408  0.87666022  0.99913585  1
