# generated using pymatgen
data_TiWC2
_symmetry_space_group_name_H-M   'P 1'
_cell_length_a   5.29773873
_cell_length_b   5.27245735
_cell_length_c   6.08903947
_cell_angle_alpha   90.04239156
_cell_angle_beta   106.65781302
_cell_angle_gamma   99.52281481
_symmetry_Int_Tables_number   1
_chemical_formula_structural   TiWC2
_chemical_formula_sum   'Ti4 W4 C8'
_cell_volume   160.48777141
_cell_formula_units_Z   4
loop_
 _symmetry_equiv_pos_site_id
 _symmetry_equiv_pos_as_xyz
  1  'x, y, z'
loop_
 _atom_site_type_symbol
 _atom_site_label
 _atom_site_symmetry_multiplicity
 _atom_site_fract_x
 _atom_site_fract_y
 _atom_site_fract_z
 _atom_site_occupancy
  W  W0  1  0.50000000  0.75000000  0.62500000  1
  W  W1  1  0.50000000  0.75000000  0.12500000  1
  W  W2  1  0.50000000  0.25000000  0.37500000  1
  W  W3  1  0.50000000  0.25000000  0.87500000  1
  C  C4  1  0.75260033  0.62541833  0.43815838  1
  C  C5  1  0.24739967  0.37458167  0.06184162  1
  C  C6  1  0.75260033  0.62541833  0.93815838  1
  C  C7  1  0.24739967  0.37458167  0.56184162  1
  C  C8  1  0.24739967  0.87458167  0.31184162  1
  C  C9  1  0.75260033  0.12541833  0.18815838  1
  C  C10  1  0.24739967  0.87458167  0.81184162  1
  C  C11  1  0.75260033  0.12541833  0.68815838  1
  Ti  Ti12  1  -0.00000000  0.50000000  0.25000000  1
  Ti  Ti13  1  -0.00000000  0.50000000  0.75000000  1
  Ti  Ti14  1  -0.00000000  0.00000000  0.50000000  1
  Ti  Ti15  1  -0.00000000  0.00000000  0.00000000  1
