# generated using pymatgen
data_TiWC2
_symmetry_space_group_name_H-M   'P 1'
_cell_length_a   5.27958047
_cell_length_b   3.04769055
_cell_length_c   10.13872011
_cell_angle_alpha   90.00000000
_cell_angle_beta   99.92473709
_cell_angle_gamma   90.00000000
_symmetry_Int_Tables_number   1
_chemical_formula_structural   TiWC2
_chemical_formula_sum   'Ti4 W4 C8'
_cell_volume   160.69600504
_cell_formula_units_Z   4
loop_
 _symmetry_equiv_pos_site_id
 _symmetry_equiv_pos_as_xyz
  1  'x, y, z'
loop_
 _atom_site_type_symbol
 _atom_site_label
 _atom_site_symmetry_multiplicity
 _atom_site_fract_x
 _atom_site_fract_y
 _atom_site_fract_z
 _atom_site_occupancy
  W  W0  1  0.76209583  0.00000000  0.24806516  1
  W  W1  1  0.23230474  0.50000000  0.24718037  1
  W  W2  1  0.50965165  0.00000000  0.50675920  1
  W  W3  1  0.24511194  0.00000000  0.74789073  1
  C  C4  1  0.37805719  0.50000000  0.62583206  1
  C  C5  1  0.62173752  0.00000000  0.87449841  1
  C  C6  1  0.12492726  0.50000000  0.87467890  1
  C  C7  1  0.62541995  0.50000000  0.37401106  1
  C  C8  1  0.87514762  0.00000000  0.62502985  1
  C  C9  1  0.37494216  0.00000000  0.12621852  1
  C  C10  1  0.87026851  0.50000000  0.11948887  1
  C  C11  1  0.12985644  0.00000000  0.37903957  1
  Ti  Ti12  1  0.50108327  0.50000000  0.00163182  1
  Ti  Ti13  1  0.74834015  0.50000000  0.75113172  1
  Ti  Ti14  1  0.99529204  0.00000000  0.99838740  1
  Ti  Ti15  1  0.00576373  0.50000000  0.50015637  1
