# generated using pymatgen
data_AlCr3N4
_symmetry_space_group_name_H-M   'P 1'
_cell_length_a   5.70148434
_cell_length_b   6.38461630
_cell_length_c   7.69584993
_cell_angle_alpha   84.00556481
_cell_angle_beta   79.62533247
_cell_angle_gamma   77.65286220
_symmetry_Int_Tables_number   1
_chemical_formula_structural   AlCr3N4
_chemical_formula_sum   'Al4 Cr12 N16'
_cell_volume   268.55468191
_cell_formula_units_Z   4
loop_
 _symmetry_equiv_pos_site_id
 _symmetry_equiv_pos_as_xyz
  1  'x, y, z'
loop_
 _atom_site_type_symbol
 _atom_site_label
 _atom_site_symmetry_multiplicity
 _atom_site_fract_x
 _atom_site_fract_y
 _atom_site_fract_z
 _atom_site_occupancy
  Cr  Cr0  1  0.10534510  0.69598807  0.89752166  1
  Cr  Cr1  1  0.60061464  0.63375371  0.95511213  1
  Cr  Cr2  1  0.99545902  0.45715760  0.69447472  1
  Cr  Cr3  1  0.42947002  0.44370287  0.69186117  1
  Cr  Cr4  1  0.28805873  0.08522242  0.83556771  1
  Cr  Cr5  1  0.16657057  0.77428945  0.58259675  1
  Cr  Cr6  1  0.02432026  0.59446355  0.29707021  1
  Cr  Cr7  1  0.52909831  0.59754786  0.28895868  1
  Cr  Cr8  1  0.86644611  0.30528680  0.06712228  1
  Cr  Cr9  1  0.42803338  0.29634603  0.05896691  1
  Cr  Cr10  1  0.20689626  0.91510112  0.19222219  1
  Cr  Cr11  1  0.75281580  0.91912082  0.19069092  1
  Al  Al12  1  0.78528198  0.06255918  0.80103574  1
  Al  Al13  1  0.65386363  0.81121858  0.56233306  1
  Al  Al14  1  0.33436046  0.18384827  0.43831871  1
  Al  Al15  1  0.84262013  0.20653934  0.44294581  1
  N  N16  1  0.69583591  0.36154407  0.85749498  1
  N  N17  1  0.17894407  0.38656195  0.89703133  1
  N  N18  1  0.55724419  0.12868523  0.62558780  1
  N  N19  1  0.06349862  0.12874399  0.62704016  1
  N  N20  1  0.86001923  0.76038016  0.74646755  1
  N  N21  1  0.39144572  0.75742540  0.75007276  1
  N  N22  1  0.74775284  0.50883974  0.49916214  1
  N  N23  1  0.25216886  0.49264837  0.48979559  1
  N  N24  1  0.61736504  0.24975829  0.26291295  1
  N  N25  1  0.11777079  0.25140712  0.25029680  1
  N  N26  1  0.50984145  0.98843790  0.00542399  1
  N  N27  1  0.99844949  0.99533919  0.99381038  1
  N  N28  1  0.93635201  0.88383191  0.39040386  1
  N  N29  1  0.43467465  0.87968321  0.37950134  1
  N  N30  1  0.82232537  0.62126208  0.11447255  1
  N  N31  1  0.30705737  0.62330569  0.11372719  1
