# generated using pymatgen
data_HfTaN2
_symmetry_space_group_name_H-M   'P 1'
_cell_length_a   8.36132925
_cell_length_b   8.32080878
_cell_length_c   8.39677590
_cell_angle_alpha   135.46645607
_cell_angle_beta   114.76791213
_cell_angle_gamma   82.07090676
_symmetry_Int_Tables_number   1
_chemical_formula_structural   HfTaN2
_chemical_formula_sum   'Hf8 Ta8 N16'
_cell_volume   359.98046512
_cell_formula_units_Z   8
loop_
 _symmetry_equiv_pos_site_id
 _symmetry_equiv_pos_as_xyz
  1  'x, y, z'
loop_
 _atom_site_type_symbol
 _atom_site_label
 _atom_site_symmetry_multiplicity
 _atom_site_fract_x
 _atom_site_fract_y
 _atom_site_fract_z
 _atom_site_occupancy
  Hf  Hf0  1  0.49632334  0.00540530  0.50194215  1
  Hf  Hf1  1  0.75741186  0.24725806  0.49594172  1
  Hf  Hf2  1  0.00332163  0.00633815  0.00901168  1
  Hf  Hf3  1  0.62167837  0.61866185  0.49098832  1
  Hf  Hf4  1  0.87746619  0.87618038  0.49652235  1
  Hf  Hf5  1  0.86758814  0.37774194  0.00405828  1
  Hf  Hf6  1  0.12867666  0.61959470  0.99805785  1
  Hf  Hf7  1  0.74753381  0.74881962  0.00347765  1
  N  N8  1  0.27144510  0.51633744  0.78305958  1
  N  N9  1  0.87808769  0.62756329  0.75242941  1
  N  N10  1  0.50819463  0.75220846  0.75220739  1
  N  N11  1  0.11680538  0.87279154  0.74779261  1
  N  N12  1  0.74691231  0.99743671  0.74757059  1
  N  N13  1  0.76938834  0.50686473  0.27568030  1
  N  N14  1  0.35355490  0.10866256  0.71694042  1
  N  N15  1  0.37214301  0.62468653  0.25372902  1
  N  N16  1  0.00685089  0.25215840  0.76057968  1
  N  N17  1  0.00962409  0.75476875  0.25624379  1
  N  N18  1  0.61814911  0.37284160  0.73942032  1
  N  N19  1  0.61537591  0.87023125  0.24375621  1
  N  N20  1  0.25285699  0.00031347  0.24627098  1
  N  N21  1  0.85561166  0.11813527  0.22431970  1
  N  N22  1  0.49957634  0.25581493  0.26673533  1
  N  N23  1  0.12542366  0.36918507  0.23326467  1
  Ta  Ta24  1  0.11272723  0.13858625  0.49342433  1
  Ta  Ta25  1  0.35692733  0.38505799  0.50707182  1
  Ta  Ta26  1  0.01453901  0.48613522  0.50455555  1
  Ta  Ta27  1  0.61046099  0.13886478  0.99544445  1
  Ta  Ta28  1  0.25055310  0.74245189  0.51225805  1
  Ta  Ta29  1  0.26807267  0.23994201  0.99292818  1
  Ta  Ta30  1  0.51227277  0.48641375  0.00657567  1
  Ta  Ta31  1  0.37444690  0.88254811  0.98774195  1
