# generated using pymatgen
data_Ti24C19
_symmetry_space_group_name_H-M   'P 1'
_cell_length_a   8.64000000
_cell_length_b   4.32000000
_cell_length_c   12.96000000
_cell_angle_alpha   90.00000000
_cell_angle_beta   90.00000000
_cell_angle_gamma   90.00000000
_symmetry_Int_Tables_number   1
_chemical_formula_structural   Ti24C19
_chemical_formula_sum   'Ti24 C19'
_cell_volume   483.72940800
_cell_formula_units_Z   1
loop_
 _symmetry_equiv_pos_site_id
 _symmetry_equiv_pos_as_xyz
  1  'x, y, z'
loop_
 _atom_site_type_symbol
 _atom_site_label
 _atom_site_symmetry_multiplicity
 _atom_site_fract_x
 _atom_site_fract_y
 _atom_site_fract_z
 _atom_site_occupancy
  Ti  Ti0  1  0.00290284  0.00000000  0.00057948  1
  Ti  Ti1  1  -0.00845754  0.50000000  0.16725593  1
  Ti  Ti2  1  0.25029867  0.00000000  0.16855842  1
  Ti  Ti3  1  0.25066170  0.50000000  -0.00101332  1
  Ti  Ti4  1  -0.00846407  0.00000000  0.33309898  1
  Ti  Ti5  1  0.00176848  0.50000000  0.49851914  1
  Ti  Ti6  1  0.25095114  0.00000000  0.50614091  1
  Ti  Ti7  1  0.25067021  0.50000000  0.33200550  1
  Ti  Ti8  1  -0.00065047  0.00000000  0.66735908  1
  Ti  Ti9  1  -0.01128105  0.50000000  0.83384680  1
  Ti  Ti10  1  0.24810637  0.00000000  0.83251885  1
  Ti  Ti11  1  0.24890899  0.50000000  0.66144854  1
  Ti  Ti12  1  0.49791877  0.00000000  -0.00768800  1
  Ti  Ti13  1  0.49985026  0.50000000  0.16879290  1
  Ti  Ti14  1  0.75921214  0.00000000  0.16687358  1
  Ti  Ti15  1  0.74749287  0.50000000  0.00233558  1
  Ti  Ti16  1  0.49976306  0.00000000  0.33174211  1
  Ti  Ti17  1  0.50004618  0.50000000  0.50611322  1
  Ti  Ti18  1  0.74808166  0.00000000  0.49892920  1
  Ti  Ti19  1  0.75883829  0.50000000  0.33281038  1
  Ti  Ti20  1  0.49980905  0.00000000  0.66845595  1
  Ti  Ti21  1  0.51066151  0.50000000  0.83192020  1
  Ti  Ti22  1  0.75121904  0.00000000  0.83334736  1
  Ti  Ti23  1  0.75110489  0.50000000  0.66523997  1
  C  C24  1  0.25303559  0.00000000  0.00495532  1
  C  C25  1  0.00342868  0.50000000  0.00110984  1
  C  C26  1  0.00551743  0.00000000  0.16803341  1
  C  C27  1  0.25243822  0.50000000  0.49614074  1
  C  C28  1  0.00557336  0.50000000  0.33179854  1
  C  C29  1  0.00232206  0.00000000  0.49760411  1
  C  C30  1  0.24994409  0.00000000  0.66677864  1
  C  C31  1  0.00185576  0.50000000  0.66749095  1
  C  C32  1  0.00274560  0.00000000  0.83398073  1
  C  C33  1  0.74483727  0.50000000  0.16814610  1
  C  C34  1  0.74744422  0.00000000  0.00233758  1
  C  C35  1  0.49617846  0.50000000  0.00540771  1
  C  C36  1  0.74793031  0.50000000  0.49816683  1
  C  C37  1  0.74477113  0.00000000  0.33176710  1
  C  C38  1  0.49662282  0.00000000  0.49353664  1
  C  C39  1  0.74969028  0.50000000  0.83347821  1
  C  C40  1  0.74982051  0.00000000  0.66599079  1
  C  C41  1  0.49937300  0.50000000  0.66641515  1
  C  C42  1  0.49705824  0.00000000  0.83433751  1
