# generated using pymatgen
data_TaN
_symmetry_space_group_name_H-M   'P 1'
_cell_length_a   8.84113345
_cell_length_b   8.84113345
_cell_length_c   8.84113345
_cell_angle_alpha   90.00000000
_cell_angle_beta   90.00000000
_cell_angle_gamma   90.00000000
_symmetry_Int_Tables_number   1
_chemical_formula_structural   TaN
_chemical_formula_sum   'Ta32 N32'
_cell_volume   691.07286046
_cell_formula_units_Z   32
loop_
 _symmetry_equiv_pos_site_id
 _symmetry_equiv_pos_as_xyz
  1  'x, y, z'
loop_
 _atom_site_type_symbol
 _atom_site_label
 _atom_site_symmetry_multiplicity
 _atom_site_fract_x
 _atom_site_fract_y
 _atom_site_fract_z
 _atom_site_occupancy
  Ta  Ta0  1  0.00000000  0.00000000  0.00000000  1
  Ta  Ta1  1  0.00000000  0.25000000  0.25000000  1
  Ta  Ta2  1  0.25000000  0.00000000  0.25000000  1
  Ta  Ta3  1  0.25000000  0.25000000  0.00000000  1
  Ta  Ta4  1  0.00000000  0.00000000  0.50000000  1
  Ta  Ta5  1  0.00000000  0.25000000  0.75000000  1
  Ta  Ta6  1  0.25000000  0.00000000  0.75000000  1
  Ta  Ta7  1  0.25000000  0.25000000  0.50000000  1
  Ta  Ta8  1  0.00000000  0.50000000  0.00000000  1
  Ta  Ta9  1  0.00000000  0.75000000  0.25000000  1
  Ta  Ta10  1  0.25000000  0.50000000  0.25000000  1
  Ta  Ta11  1  0.25000000  0.75000000  0.00000000  1
  Ta  Ta12  1  0.00000000  0.50000000  0.50000000  1
  Ta  Ta13  1  0.00000000  0.75000000  0.75000000  1
  Ta  Ta14  1  0.25000000  0.50000000  0.75000000  1
  Ta  Ta15  1  0.25000000  0.75000000  0.50000000  1
  Ta  Ta16  1  0.50000000  0.00000000  0.00000000  1
  Ta  Ta17  1  0.50000000  0.25000000  0.25000000  1
  Ta  Ta18  1  0.75000000  0.00000000  0.25000000  1
  Ta  Ta19  1  0.75000000  0.25000000  0.00000000  1
  Ta  Ta20  1  0.50000000  0.00000000  0.50000000  1
  Ta  Ta21  1  0.50000000  0.25000000  0.75000000  1
  Ta  Ta22  1  0.75000000  0.00000000  0.75000000  1
  Ta  Ta23  1  0.75000000  0.25000000  0.50000000  1
  Ta  Ta24  1  0.50000000  0.50000000  0.00000000  1
  Ta  Ta25  1  0.50000000  0.75000000  0.25000000  1
  Ta  Ta26  1  0.75000000  0.50000000  0.25000000  1
  Ta  Ta27  1  0.75000000  0.75000000  0.00000000  1
  Ta  Ta28  1  0.50000000  0.50000000  0.50000000  1
  Ta  Ta29  1  0.50000000  0.75000000  0.75000000  1
  Ta  Ta30  1  0.75000000  0.50000000  0.75000000  1
  Ta  Ta31  1  0.75000000  0.75000000  0.50000000  1
  N  N32  1  0.25000000  0.25000000  0.25000000  1
  N  N33  1  0.25000000  0.00000000  0.00000000  1
  N  N34  1  0.00000000  0.25000000  0.00000000  1
  N  N35  1  0.00000000  0.00000000  0.25000000  1
  N  N36  1  0.25000000  0.25000000  0.75000000  1
  N  N37  1  0.25000000  0.00000000  0.50000000  1
  N  N38  1  0.00000000  0.25000000  0.50000000  1
  N  N39  1  0.00000000  0.00000000  0.75000000  1
  N  N40  1  0.25000000  0.75000000  0.25000000  1
  N  N41  1  0.25000000  0.50000000  0.00000000  1
  N  N42  1  0.00000000  0.75000000  0.00000000  1
  N  N43  1  0.00000000  0.50000000  0.25000000  1
  N  N44  1  0.25000000  0.75000000  0.75000000  1
  N  N45  1  0.25000000  0.50000000  0.50000000  1
  N  N46  1  0.00000000  0.75000000  0.50000000  1
  N  N47  1  0.00000000  0.50000000  0.75000000  1
  N  N48  1  0.75000000  0.25000000  0.25000000  1
  N  N49  1  0.75000000  0.00000000  0.00000000  1
  N  N50  1  0.50000000  0.25000000  0.00000000  1
  N  N51  1  0.50000000  0.00000000  0.25000000  1
  N  N52  1  0.75000000  0.25000000  0.75000000  1
  N  N53  1  0.75000000  0.00000000  0.50000000  1
  N  N54  1  0.50000000  0.25000000  0.50000000  1
  N  N55  1  0.50000000  0.00000000  0.75000000  1
  N  N56  1  0.75000000  0.75000000  0.25000000  1
  N  N57  1  0.75000000  0.50000000  0.00000000  1
  N  N58  1  0.50000000  0.75000000  0.00000000  1
  N  N59  1  0.50000000  0.50000000  0.25000000  1
  N  N60  1  0.75000000  0.75000000  0.75000000  1
  N  N61  1  0.75000000  0.50000000  0.50000000  1
  N  N62  1  0.50000000  0.75000000  0.50000000  1
  N  N63  1  0.50000000  0.50000000  0.75000000  1
