# generated using pymatgen
data_Hf4C3N
_symmetry_space_group_name_H-M   'P 1'
_cell_length_a   6.53820789
_cell_length_b   7.30328371
_cell_length_c   8.64958067
_cell_angle_alpha   85.16781801
_cell_angle_beta   79.11300138
_cell_angle_gamma   77.09036536
_symmetry_Int_Tables_number   1
_chemical_formula_structural   Hf4C3N
_chemical_formula_sum   'Hf16 C12 N4'
_cell_volume   394.95384071
_cell_formula_units_Z   4
loop_
 _symmetry_equiv_pos_site_id
 _symmetry_equiv_pos_as_xyz
  1  'x, y, z'
loop_
 _atom_site_type_symbol
 _atom_site_label
 _atom_site_symmetry_multiplicity
 _atom_site_fract_x
 _atom_site_fract_y
 _atom_site_fract_z
 _atom_site_occupancy
  C  C0  1  0.09466435  0.68875891  0.93563278  1
  C  C1  1  0.59382675  0.68736321  0.93506189  1
  C  C2  1  0.97013974  0.43582458  0.68786897  1
  C  C3  1  0.15765333  0.81241924  0.56387431  1
  C  C4  1  0.65322525  0.81584806  0.56464406  1
  C  C5  1  0.03174271  0.56061115  0.31471192  1
  C  C6  1  0.53006760  0.56195360  0.31495459  1
  C  C7  1  0.90714680  0.31110885  0.06055275  1
  C  C8  1  0.40694926  0.31132227  0.06049011  1
  C  C9  1  0.84183972  0.18695650  0.44152871  1
  C  C10  1  0.21923398  0.93970580  0.18556205  1
  C  C11  1  0.71861448  0.93835083  0.18501131  1
  Hf  Hf12  1  0.68797517  0.37586629  0.87773505  1
  Hf  Hf13  1  0.18588872  0.37494653  0.87678450  1
  Hf  Hf14  1  0.56573357  0.12344872  0.62190415  1
  Hf  Hf15  1  0.06123079  0.12585699  0.62284716  1
  Hf  Hf16  1  0.87549898  0.74853036  0.75015029  1
  Hf  Hf17  1  0.37435408  0.75120685  0.75050007  1
  Hf  Hf18  1  0.75112850  0.50036170  0.49846667  1
  Hf  Hf19  1  0.24850753  0.50219882  0.49825548  1
  Hf  Hf20  1  0.62588774  0.25064969  0.24931978  1
  Hf  Hf21  1  0.12404321  0.25048481  0.24856910  1
  Hf  Hf22  1  0.49973666  0.99924380  0.00307271  1
  Hf  Hf23  1  0.99920642  0.99858537  0.00326794  1
  Hf  Hf24  1  0.93772151  0.87534817  0.37429626  1
  Hf  Hf25  1  0.43802281  0.87348447  0.37432387  1
  Hf  Hf26  1  0.81260478  0.62531440  0.12554913  1
  Hf  Hf27  1  0.31237054  0.62454792  0.12502414  1
  N  N28  1  0.46818963  0.43482593  0.68804169  1
  N  N29  1  0.28290556  0.06240783  0.80961120  1
  N  N30  1  0.78032314  0.06532064  0.80913520  1
  N  N31  1  0.34356668  0.18714772  0.44325215  1
