# generated using pymatgen
data_Li3H8Au
_symmetry_space_group_name_H-M   'P 1'
_cell_length_a   8.77110395
_cell_length_b   8.77110395
_cell_length_c   8.77110395
_cell_angle_alpha   90.00000000
_cell_angle_beta   90.00000000
_cell_angle_gamma   90.00000000
_symmetry_Int_Tables_number   1
_chemical_formula_structural   Li3H8Au
_chemical_formula_sum   'Li24 H64 Au8'
_cell_volume   674.78088905
_cell_formula_units_Z   8
loop_
 _symmetry_equiv_pos_site_id
 _symmetry_equiv_pos_as_xyz
  1  'x, y, z'
loop_
 _atom_site_type_symbol
 _atom_site_label
 _atom_site_symmetry_multiplicity
 _atom_site_fract_x
 _atom_site_fract_y
 _atom_site_fract_z
 _atom_site_occupancy
  Li  Li0  1  0.00000000  0.00000000  0.00000000  1
  Li  Li1  1  0.00000000  0.25000000  0.25000000  1
  Li  Li2  1  0.25000000  0.25000000  0.00000000  1
  Li  Li3  1  0.00000000  0.00000000  0.50000000  1
  Li  Li4  1  0.00000000  0.25000000  0.75000000  1
  Li  Li5  1  0.25000000  0.25000000  0.50000000  1
  Li  Li6  1  0.00000000  0.50000000  0.00000000  1
  Li  Li7  1  0.00000000  0.75000000  0.25000000  1
  Li  Li8  1  0.25000000  0.75000000  0.00000000  1
  Li  Li9  1  0.00000000  0.50000000  0.50000000  1
  Li  Li10  1  0.00000000  0.75000000  0.75000000  1
  Li  Li11  1  0.25000000  0.75000000  0.50000000  1
  Li  Li12  1  0.50000000  0.00000000  0.00000000  1
  Li  Li13  1  0.50000000  0.25000000  0.25000000  1
  Li  Li14  1  0.75000000  0.25000000  0.00000000  1
  Li  Li15  1  0.50000000  0.00000000  0.50000000  1
  Li  Li16  1  0.50000000  0.25000000  0.75000000  1
  Li  Li17  1  0.75000000  0.25000000  0.50000000  1
  Li  Li18  1  0.50000000  0.50000000  0.00000000  1
  Li  Li19  1  0.50000000  0.75000000  0.25000000  1
  Li  Li20  1  0.75000000  0.75000000  0.00000000  1
  Li  Li21  1  0.50000000  0.50000000  0.50000000  1
  Li  Li22  1  0.50000000  0.75000000  0.75000000  1
  Li  Li23  1  0.75000000  0.75000000  0.50000000  1
  Au  Au24  1  0.25000000  0.00000000  0.25000000  1
  Au  Au25  1  0.25000000  0.00000000  0.75000000  1
  Au  Au26  1  0.25000000  0.50000000  0.25000000  1
  Au  Au27  1  0.25000000  0.50000000  0.75000000  1
  Au  Au28  1  0.75000000  0.00000000  0.25000000  1
  Au  Au29  1  0.75000000  0.00000000  0.75000000  1
  Au  Au30  1  0.75000000  0.50000000  0.25000000  1
  Au  Au31  1  0.75000000  0.50000000  0.75000000  1
  H  H32  1  0.12484383  0.12515617  0.12484383  1
  H  H33  1  0.37515617  0.37484383  0.37515617  1
  H  H34  1  0.12484383  0.37484383  0.37515617  1
  H  H35  1  0.37515617  0.12515617  0.12484383  1
  H  H36  1  0.37515617  0.12515617  0.37515617  1
  H  H37  1  0.12484383  0.37484383  0.12484383  1
  H  H38  1  0.37515617  0.37484383  0.12484383  1
  H  H39  1  0.12484383  0.12515617  0.37515617  1
  H  H40  1  0.12484383  0.12515617  0.62484383  1
  H  H41  1  0.37515617  0.37484383  0.87515617  1
  H  H42  1  0.12484383  0.37484383  0.87515617  1
  H  H43  1  0.37515617  0.12515617  0.62484383  1
  H  H44  1  0.37515617  0.12515617  0.87515617  1
  H  H45  1  0.12484383  0.37484383  0.62484383  1
  H  H46  1  0.37515617  0.37484383  0.62484383  1
  H  H47  1  0.12484383  0.12515617  0.87515617  1
  H  H48  1  0.12484383  0.62515617  0.12484383  1
  H  H49  1  0.37515617  0.87484383  0.37515617  1
  H  H50  1  0.12484383  0.87484383  0.37515617  1
  H  H51  1  0.37515617  0.62515617  0.12484383  1
  H  H52  1  0.37515617  0.62515617  0.37515617  1
  H  H53  1  0.12484383  0.87484383  0.12484383  1
  H  H54  1  0.37515617  0.87484383  0.12484383  1
  H  H55  1  0.12484383  0.62515617  0.37515617  1
  H  H56  1  0.12484383  0.62515617  0.62484383  1
  H  H57  1  0.37515617  0.87484383  0.87515617  1
  H  H58  1  0.12484383  0.87484383  0.87515617  1
  H  H59  1  0.37515617  0.62515617  0.62484383  1
  H  H60  1  0.37515617  0.62515617  0.87515617  1
  H  H61  1  0.12484383  0.87484383  0.62484383  1
  H  H62  1  0.37515617  0.87484383  0.62484383  1
  H  H63  1  0.12484383  0.62515617  0.87515617  1
  H  H64  1  0.62484383  0.12515617  0.12484383  1
  H  H65  1  0.87515617  0.37484383  0.37515617  1
  H  H66  1  0.62484383  0.37484383  0.37515617  1
  H  H67  1  0.87515617  0.12515617  0.12484383  1
  H  H68  1  0.87515617  0.12515617  0.37515617  1
  H  H69  1  0.62484383  0.37484383  0.12484383  1
  H  H70  1  0.87515617  0.37484383  0.12484383  1
  H  H71  1  0.62484383  0.12515617  0.37515617  1
  H  H72  1  0.62484383  0.12515617  0.62484383  1
  H  H73  1  0.87515617  0.37484383  0.87515617  1
  H  H74  1  0.62484383  0.37484383  0.87515617  1
  H  H75  1  0.87515617  0.12515617  0.62484383  1
  H  H76  1  0.87515617  0.12515617  0.87515617  1
  H  H77  1  0.62484383  0.37484383  0.62484383  1
  H  H78  1  0.87515617  0.37484383  0.62484383  1
  H  H79  1  0.62484383  0.12515617  0.87515617  1
  H  H80  1  0.62484383  0.62515617  0.12484383  1
  H  H81  1  0.87515617  0.87484383  0.37515617  1
  H  H82  1  0.62484383  0.87484383  0.37515617  1
  H  H83  1  0.87515617  0.62515617  0.12484383  1
  H  H84  1  0.87515617  0.62515617  0.37515617  1
  H  H85  1  0.62484383  0.87484383  0.12484383  1
  H  H86  1  0.87515617  0.87484383  0.12484383  1
  H  H87  1  0.62484383  0.62515617  0.37515617  1
  H  H88  1  0.62484383  0.62515617  0.62484383  1
  H  H89  1  0.87515617  0.87484383  0.87515617  1
  H  H90  1  0.62484383  0.87484383  0.87515617  1
  H  H91  1  0.87515617  0.62515617  0.62484383  1
  H  H92  1  0.87515617  0.62515617  0.87515617  1
  H  H93  1  0.62484383  0.87484383  0.62484383  1
  H  H94  1  0.87515617  0.87484383  0.62484383  1
  H  H95  1  0.62484383  0.62515617  0.87515617  1
