# generated using pymatgen
data_MnFeCoReNi
_symmetry_space_group_name_H-M   'P 1'
_cell_length_a   6.74099468
_cell_length_b   6.74448796
_cell_length_c   8.06958745
_cell_angle_alpha   125.93809108
_cell_angle_beta   125.72464437
_cell_angle_gamma   65.17249570
_symmetry_Int_Tables_number   1
_chemical_formula_structural   MnFeCoReNi
_chemical_formula_sum   'Mn4 Fe4 Co4 Re4 Ni4'
_cell_volume   239.48202302
_cell_formula_units_Z   4
loop_
 _symmetry_equiv_pos_site_id
 _symmetry_equiv_pos_as_xyz
  1  'x, y, z'
loop_
 _atom_site_type_symbol
 _atom_site_label
 _atom_site_symmetry_multiplicity
 _atom_site_fract_x
 _atom_site_fract_y
 _atom_site_fract_z
 _atom_site_occupancy
  Co  Co0  1  0.44859060  0.94842495  0.29331185  1
  Co  Co1  1  0.01424612  0.99623029  0.99711794  1
  Co  Co2  1  0.80001512  0.79414361  0.20037916  1
  Co  Co3  1  0.85556815  0.35678659  0.90830941  1
  Fe  Fe4  1  0.04232070  0.55564110  0.69524263  1
  Fe  Fe5  1  0.40025874  0.39747603  0.60808271  1
  Fe  Fe6  1  0.71348468  0.68614932  0.80575801  1
  Fe  Fe7  1  0.50345393  0.51854571  0.00754195  1
  Mn  Mn8  1  0.35013700  0.85062515  0.89987857  1
  Mn  Mn9  1  0.18694532  0.21366117  0.80103911  1
  Mn  Mn10  1  0.29327442  0.30180610  0.20569343  1
  Mn  Mn11  1  0.89227839  0.89629462  0.58973369  1
  Ni  Ni12  1  0.15584991  0.65156219  0.09849986  1
  Ni  Ni13  1  0.59882704  0.59507274  0.39382875  1
  Ni  Ni14  1  0.74541940  0.24997405  0.50398881  1
  Ni  Ni15  1  0.94145507  0.45087563  0.29432107  1
  Re  Re16  1  0.25455905  0.74513283  0.50382765  1
  Re  Re17  1  0.09684048  0.10033825  0.39153200  1
  Re  Re18  1  0.56932455  0.05027505  0.70696790  1
  Re  Re19  1  0.63715137  0.14098459  0.09494548  1
