# generated using pymatgen
data_HfCrFeCoNi
_symmetry_space_group_name_H-M   'P 1'
_cell_length_a   7.81882461
_cell_length_b   7.63931532
_cell_length_c   6.72489968
_cell_angle_alpha   95.85117812
_cell_angle_beta   85.97696525
_cell_angle_gamma   138.33968706
_symmetry_Int_Tables_number   1
_chemical_formula_structural   HfCrFeCoNi
_chemical_formula_sum   'Hf4 Cr4 Fe4 Co4 Ni4'
_cell_volume   265.60082753
_cell_formula_units_Z   4
loop_
 _symmetry_equiv_pos_site_id
 _symmetry_equiv_pos_as_xyz
  1  'x, y, z'
loop_
 _atom_site_type_symbol
 _atom_site_label
 _atom_site_symmetry_multiplicity
 _atom_site_fract_x
 _atom_site_fract_y
 _atom_site_fract_z
 _atom_site_occupancy
  Co  Co0  1  0.51154017  0.49207636  0.04030163  1
  Co  Co1  1  0.07906228  0.91363319  0.61275300  1
  Co  Co2  1  0.34013631  0.76121051  0.77439207  1
  Co  Co3  1  0.85781588  0.58161010  0.87411066  1
  Cr  Cr4  1  0.04122866  0.29804110  0.14197328  1
  Cr  Cr5  1  0.30943985  0.20335904  0.31132134  1
  Cr  Cr6  1  0.95198151  0.07279399  0.39982815  1
  Cr  Cr7  1  0.81204787  0.68169726  0.29068998  1
  Fe  Fe8  1  0.01823160  0.97343421  0.01841742  1
  Fe  Fe9  1  0.62246089  0.88206637  0.07174317  1
  Fe  Fe10  1  0.60027414  0.44899994  0.58441944  1
  Fe  Fe11  1  0.41146188  0.13093039  0.85172413  1
  Hf  Hf12  1  0.20798047  0.77436670  0.13354359  1
  Hf  Hf13  1  0.93847073  0.45603843  0.51524319  1
  Hf  Hf14  1  0.44315472  0.66602739  0.40732270  1
  Hf  Hf15  1  0.21318526  0.33398924  0.75711653  1
  Ni  Ni16  1  0.68984829  0.27871075  0.16107058  1
  Ni  Ni17  1  0.44036151  0.01431326  0.48457375  1
  Ni  Ni18  1  0.79545135  0.21013089  0.82979639  1
  Ni  Ni19  1  0.71586667  0.82657091  0.73965901  1
