# generated using pymatgen
data_AlFeCoReNi
_symmetry_space_group_name_H-M   'P 1'
_cell_length_a   4.49813353
_cell_length_b   7.71565041
_cell_length_c   7.80474457
_cell_angle_alpha   66.93026553
_cell_angle_beta   84.74288762
_cell_angle_gamma   94.67263343
_symmetry_Int_Tables_number   1
_chemical_formula_structural   AlFeCoReNi
_chemical_formula_sum   'Al4 Fe4 Co4 Re4 Ni4'
_cell_volume   246.11665041
_cell_formula_units_Z   4
loop_
 _symmetry_equiv_pos_site_id
 _symmetry_equiv_pos_as_xyz
  1  'x, y, z'
loop_
 _atom_site_type_symbol
 _atom_site_label
 _atom_site_symmetry_multiplicity
 _atom_site_fract_x
 _atom_site_fract_y
 _atom_site_fract_z
 _atom_site_occupancy
  Al  Al0  1  0.99789739  0.00085566  0.00080098  1
  Al  Al1  1  0.99414756  0.20099491  0.21488295  1
  Al  Al2  1  0.74971216  0.64203270  0.18144769  1
  Al  Al3  1  0.97977720  0.79478056  0.78924372  1
  Co  Co4  1  0.01674756  0.39865940  0.40209776  1
  Co  Co5  1  0.25432299  0.75226976  0.24901146  1
  Co  Co6  1  0.74826420  0.86508288  0.35040367  1
  Co  Co7  1  0.48612769  0.89426344  0.90065224  1
  Fe  Fe8  1  0.49714625  0.09099215  0.10522618  1
  Fe  Fe9  1  0.74292135  0.05103749  0.55329425  1
  Fe  Fe10  1  0.74631119  0.44692793  0.95190334  1
  Fe  Fe11  1  0.25702389  0.94615505  0.44536429  1
  Ni  Ni12  1  0.50192595  0.30219902  0.30019885  1
  Ni  Ni13  1  0.74344399  0.24442775  0.75254690  1
  Ni  Ni14  1  0.50171059  0.49716237  0.50326745  1
  Ni  Ni15  1  0.50439678  0.70180380  0.68965668  1
  Re  Re16  1  0.26046810  0.15124314  0.63614277  1
  Re  Re17  1  0.26714529  0.56075480  0.05022117  1
  Re  Re18  1  0.25209338  0.36128805  0.84656751  1
  Re  Re19  1  0.99841648  0.59706916  0.57707015  1
