# generated using pymatgen
data_MnAlFeCoNi
_symmetry_space_group_name_H-M   'P 1'
_cell_length_a   4.39986240
_cell_length_b   6.71927456
_cell_length_c   8.85413766
_cell_angle_alpha   70.27942133
_cell_angle_beta   80.72477436
_cell_angle_gamma   71.24357637
_symmetry_Int_Tables_number   1
_chemical_formula_structural   MnAlFeCoNi
_chemical_formula_sum   'Mn4 Al4 Fe4 Co4 Ni4'
_cell_volume   232.91652335
_cell_formula_units_Z   4
loop_
 _symmetry_equiv_pos_site_id
 _symmetry_equiv_pos_as_xyz
  1  'x, y, z'
loop_
 _atom_site_type_symbol
 _atom_site_label
 _atom_site_symmetry_multiplicity
 _atom_site_fract_x
 _atom_site_fract_y
 _atom_site_fract_z
 _atom_site_occupancy
  Al  Al0  1  0.48575201  0.70230505  0.45089346  1
  Al  Al1  1  0.01598496  0.38228755  0.40654945  1
  Al  Al2  1  0.00625212  0.79623346  0.79586291  1
  Al  Al3  1  0.47307323  0.10561709  0.85026153  1
  Co  Co4  1  0.49001068  0.90191008  0.15175143  1
  Co  Co5  1  0.50496954  0.50182961  0.24432356  1
  Co  Co6  1  0.00213717  0.99670195  0.49535208  1
  Co  Co7  1  0.98768114  0.19879680  0.70569709  1
  Fe  Fe8  1  0.50005551  0.30747238  0.05415445  1
  Fe  Fe9  1  0.99310998  0.59729857  0.10482306  1
  Fe  Fe10  1  0.97836331  0.00745533  0.00201874  1
  Fe  Fe11  1  0.00189618  0.59421770  0.60031396  1
  Mn  Mn12  1  0.99224785  0.80399581  0.29226247  1
  Mn  Mn13  1  0.01160716  0.19388965  0.19415561  1
  Mn  Mn14  1  0.52734492  0.09725076  0.34550488  1
  Mn  Mn15  1  0.52236365  0.49898396  0.75488635  1
  Ni  Ni16  1  0.50254292  0.90434986  0.64747107  1
  Ni  Ni17  1  0.50710160  0.29972665  0.54870033  1
  Ni  Ni18  1  0.49522291  0.70584633  0.95302225  1
  Ni  Ni19  1  0.00228319  0.40383142  0.90199534  1
