# generated using pymatgen
data_HfMnFeCoNi
_symmetry_space_group_name_H-M   'P 1'
_cell_length_a   6.07446154
_cell_length_b   7.11796430
_cell_length_c   8.58186802
_cell_angle_alpha   122.73104308
_cell_angle_beta   107.88461342
_cell_angle_gamma   57.60354668
_symmetry_Int_Tables_number   1
_chemical_formula_structural   HfMnFeCoNi
_chemical_formula_sum   'Hf4 Mn4 Fe4 Co4 Ni4'
_cell_volume   263.48243763
_cell_formula_units_Z   4
loop_
 _symmetry_equiv_pos_site_id
 _symmetry_equiv_pos_as_xyz
  1  'x, y, z'
loop_
 _atom_site_type_symbol
 _atom_site_label
 _atom_site_symmetry_multiplicity
 _atom_site_fract_x
 _atom_site_fract_y
 _atom_site_fract_z
 _atom_site_occupancy
  Co  Co0  1  0.50452850  0.49624347  0.51230534  1
  Co  Co1  1  0.41683636  0.80934647  0.20215466  1
  Co  Co2  1  0.68369107  0.90209007  0.10387013  1
  Co  Co3  1  0.56760558  0.35686585  0.16192860  1
  Fe  Fe4  1  0.75683956  0.70465993  0.72904522  1
  Fe  Fe5  1  0.91215957  0.27327726  0.67885850  1
  Fe  Fe6  1  0.64428578  0.05298484  0.43320792  1
  Fe  Fe7  1  0.93102768  0.19665497  0.37837599  1
  Hf  Hf8  1  0.30616282  0.10056874  0.91251962  1
  Hf  Hf9  1  0.60099195  0.21076842  0.78541648  1
  Hf  Hf10  1  0.12037773  0.70874961  0.28401344  1
  Hf  Hf11  1  -0.00226799  0.97316917  0.01751087  1
  Mn  Mn12  1  0.06083161  0.80749379  0.62787422  1
  Mn  Mn13  1  0.77984386  0.62679661  0.41081377  1
  Mn  Mn14  1  0.24792360  0.27113563  0.27363881  1
  Mn  Mn15  1  0.82854667  0.47420427  0.06354008  1
  Ni  Ni16  1  0.12675513  0.52676768  0.92858435  1
  Ni  Ni17  1  0.46015738  0.65033709  0.84550518  1
  Ni  Ni18  1  0.35454212  0.95538939  0.54907247  1
  Ni  Ni19  1  0.19916101  0.40249673  0.60176434  1
