# generated using pymatgen
data_MnFeCoNiOs
_symmetry_space_group_name_H-M   'P 1'
_cell_length_a   4.40703173
_cell_length_b   6.74038748
_cell_length_c   8.80816904
_cell_angle_alpha   70.77337489
_cell_angle_beta   80.72135882
_cell_angle_gamma   71.39658611
_symmetry_Int_Tables_number   1
_chemical_formula_structural   MnFeCoNiOs
_chemical_formula_sum   'Mn4 Fe4 Co4 Ni4 Os4'
_cell_volume   233.68315226
_cell_formula_units_Z   4
loop_
 _symmetry_equiv_pos_site_id
 _symmetry_equiv_pos_as_xyz
  1  'x, y, z'
loop_
 _atom_site_type_symbol
 _atom_site_label
 _atom_site_symmetry_multiplicity
 _atom_site_fract_x
 _atom_site_fract_y
 _atom_site_fract_z
 _atom_site_occupancy
  Co  Co0  1  0.49875246  0.10184108  0.34928726  1
  Co  Co1  1  0.99413000  0.80489589  0.79687656  1
  Co  Co2  1  0.98659228  0.00143962  0.50339015  1
  Co  Co3  1  0.50323070  0.09949939  0.84696491  1
  Fe  Fe4  1  0.49775616  0.90222267  0.15089222  1
  Fe  Fe5  1  0.00058818  0.80102942  0.30152079  1
  Fe  Fe6  1  0.50901649  0.70485716  0.94046343  1
  Fe  Fe7  1  0.00698997  0.18493893  0.70449123  1
  Mn  Mn8  1  0.99277791  0.60434875  0.09749775  1
  Mn  Mn9  1  0.50364707  0.90150851  0.64508809  1
  Mn  Mn10  1  0.50034974  0.29204664  0.55082266  1
  Mn  Mn11  1  0.00357121  0.60384707  0.60586122  1
  Ni  Ni12  1  0.49561437  0.50173586  0.24549777  1
  Ni  Ni13  1  0.99874393  0.20098500  0.20256963  1
  Ni  Ni14  1  0.50041455  0.49611361  0.75239345  1
  Ni  Ni15  1  0.00366989  0.40233489  0.89874283  1
  Os  Os16  1  0.50254328  0.29700111  0.04990466  1
  Os  Os17  1  0.49601005  0.71152411  0.44974363  1
  Os  Os18  1  0.00748799  0.99025806  0.00224035  1
  Os  Os19  1  0.99811375  0.39757222  0.40575138  1
