# generated using pymatgen
data_MnFeCoNiOs
_symmetry_space_group_name_H-M   'P 1'
_cell_length_a   5.09871444
_cell_length_b   6.73889937
_cell_length_c   9.87164013
_cell_angle_alpha   54.33999987
_cell_angle_beta   58.77963624
_cell_angle_gamma   67.76745552
_symmetry_Int_Tables_number   1
_chemical_formula_structural   MnFeCoNiOs
_chemical_formula_sum   'Mn4 Fe4 Co4 Ni4 Os4'
_cell_volume   234.25451997
_cell_formula_units_Z   4
loop_
 _symmetry_equiv_pos_site_id
 _symmetry_equiv_pos_as_xyz
  1  'x, y, z'
loop_
 _atom_site_type_symbol
 _atom_site_label
 _atom_site_symmetry_multiplicity
 _atom_site_fract_x
 _atom_site_fract_y
 _atom_site_fract_z
 _atom_site_occupancy
  Co  Co0  1  0.55498405  0.79652044  0.30004916  1
  Co  Co1  1  0.10234516  0.60004720  0.59933081  1
  Co  Co2  1  0.94929668  0.20460227  0.69351314  1
  Co  Co3  1  0.65965744  0.39936434  0.89394583  1
  Fe  Fe4  1  0.98645684  0.00057361  0.00620905  1
  Fe  Fe5  1  0.50000869  0.00009597  0.00453522  1
  Fe  Fe6  1  0.70521896  0.19672205  0.19515161  1
  Fe  Fe7  1  0.61058812  0.60030408  0.59976836  1
  Mn  Mn8  1  0.20404111  0.20293398  0.19498355  1
  Mn  Mn9  1  0.39478470  0.40410120  0.40401584  1
  Mn  Mn10  1  0.89829823  0.39777551  0.40140221  1
  Mn  Mn11  1  0.80464820  0.79829878  0.79977077  1
  Ni  Ni12  1  0.04892105  0.79808750  0.30364216  1
  Ni  Ni13  1  0.84649523  0.59406936  0.10356778  1
  Ni  Ni14  1  0.75047846  0.00394600  0.49679624  1
  Ni  Ni15  1  0.14787243  0.39841485  0.90065613  1
  Os  Os16  1  0.34876460  0.59426545  0.10494464  1
  Os  Os17  1  0.24931431  0.00452609  0.49174343  1
  Os  Os18  1  0.29302478  0.80182462  0.80284058  1
  Os  Os19  1  0.44480096  0.20352674  0.70313348  1
