# generated using pymatgen
data_AlFeCoNiW
_symmetry_space_group_name_H-M   'P 1'
_cell_length_a   5.74583745
_cell_length_b   6.39657851
_cell_length_c   7.87436878
_cell_angle_alpha   106.43662374
_cell_angle_beta   97.76635780
_cell_angle_gamma   110.72518855
_symmetry_Int_Tables_number   1
_chemical_formula_structural   AlFeCoNiW
_chemical_formula_sum   'Al4 Fe4 Co4 Ni4 W4'
_cell_volume   250.53424220
_cell_formula_units_Z   4
loop_
 _symmetry_equiv_pos_site_id
 _symmetry_equiv_pos_as_xyz
  1  'x, y, z'
loop_
 _atom_site_type_symbol
 _atom_site_label
 _atom_site_symmetry_multiplicity
 _atom_site_fract_x
 _atom_site_fract_y
 _atom_site_fract_z
 _atom_site_occupancy
  Al  Al0  1  0.48501975  0.77598123  0.87052425  1
  Al  Al1  1  0.24786701  0.99321871  0.73134630  1
  Al  Al2  1  0.99861651  0.79227933  0.37776107  1
  Al  Al3  1  0.24813979  0.22865803  0.37322544  1
  Co  Co4  1  0.99930242  0.60959323  0.80694734  1
  Co  Co5  1  0.75756364  0.80718339  0.64334272  1
  Co  Co6  1  0.25176577  0.60904636  0.54556996  1
  Co  Co7  1  0.75025504  0.98965126  0.25040221  1
  Fe  Fe8  1  0.74310584  0.20126183  0.84418798  1
  Fe  Fe9  1  0.99277743  0.19293817  0.60995876  1
  Fe  Fe10  1  0.50352315  0.61354144  0.30839540  1
  Fe  Fe11  1  0.73360786  0.57783050  0.04042540  1
  Ni  Ni12  1  0.49990080  0.40015479  0.70197996  1
  Ni  Ni13  1  0.49818535  0.99864532  0.49461860  1
  Ni  Ni14  1  0.00770222  0.40877120  0.20887186  1
  Ni  Ni15  1  0.26240591  0.80365864  0.15020566  1
  W  W16  1  0.23321154  0.40331912  0.95351795  1
  W  W17  1  0.78305800  0.40830879  0.47699482  1
  W  W18  1  0.51791960  0.19540068  0.10815085  1
  W  W19  1  0.98607240  0.99055797  0.00357346  1
