# generated using pymatgen
data_AlFeCoNiPd
_symmetry_space_group_name_H-M   'P 1'
_cell_length_a   4.43208707
_cell_length_b   5.78256559
_cell_length_c   10.10652201
_cell_angle_alpha   73.60493625
_cell_angle_beta   80.76106149
_cell_angle_gamma   82.29436265
_symmetry_Int_Tables_number   1
_chemical_formula_structural   AlFeCoNiPd
_chemical_formula_sum   'Al4 Fe4 Co4 Ni4 Pd4'
_cell_volume   244.18265346
_cell_formula_units_Z   4
loop_
 _symmetry_equiv_pos_site_id
 _symmetry_equiv_pos_as_xyz
  1  'x, y, z'
loop_
 _atom_site_type_symbol
 _atom_site_label
 _atom_site_symmetry_multiplicity
 _atom_site_fract_x
 _atom_site_fract_y
 _atom_site_fract_z
 _atom_site_occupancy
  Al  Al0  1  0.51087959  0.01954159  0.50180265  1
  Al  Al1  1  0.23846327  0.80174927  0.34814920  1
  Al  Al2  1  0.51857585  0.19629097  0.89139471  1
  Al  Al3  1  0.22911927  0.60299990  0.94886190  1
  Co  Co4  1  0.73892628  -0.00050623  0.25961873  1
  Co  Co5  1  0.00352960  0.21165155  0.39447826  1
  Co  Co6  1  0.24053173  0.02154735  0.73968577  1
  Co  Co7  1  0.01563498  0.39660259  0.79074096  1
  Fe  Fe8  1  0.72872090  0.38688141  0.06450813  1
  Fe  Fe9  1  0.51915824  0.79818677  0.11003330  1
  Fe  Fe10  1  0.73005695  0.58069345  0.45475373  1
  Fe  Fe11  1  0.50000063  0.58811133  0.69811311  1
  Ni  Ni12  1  0.25752008  0.19549488  0.15481571  1
  Ni  Ni13  1  0.50473974  0.39000090  0.30440730  1
  Ni  Ni14  1  0.24021576  0.39625630  0.54754256  1
  Ni  Ni15  1  0.75197201  0.21016061  0.64603140  1
  Pd  Pd16  1  0.01814979  0.01306394  0.99977322  1
  Pd  Pd17  1  0.01082687  0.59452018  0.20294752  1
  Pd  Pd18  1  0.01175521  0.80510213  0.59053933  1
  Pd  Pd19  1  0.73122325  0.79165109  0.85180250  1
