# generated using pymatgen
data_ZrMnFeCoNi
_symmetry_space_group_name_H-M   'P 1'
_cell_length_a   5.95408956
_cell_length_b   6.92947649
_cell_length_c   7.09203795
_cell_angle_alpha   71.09349241
_cell_angle_beta   84.13293493
_cell_angle_gamma   75.04273361
_symmetry_Int_Tables_number   1
_chemical_formula_structural   ZrMnFeCoNi
_chemical_formula_sum   'Zr4 Mn4 Fe4 Co4 Ni4'
_cell_volume   267.38735063
_cell_formula_units_Z   4
loop_
 _symmetry_equiv_pos_site_id
 _symmetry_equiv_pos_as_xyz
  1  'x, y, z'
loop_
 _atom_site_type_symbol
 _atom_site_label
 _atom_site_symmetry_multiplicity
 _atom_site_fract_x
 _atom_site_fract_y
 _atom_site_fract_z
 _atom_site_occupancy
  Co  Co0  1  0.47282564  0.83685777  0.94208372  1
  Co  Co1  1  0.21149597  0.58354589  0.19035474  1
  Co  Co2  1  0.34596489  0.57580237  0.84756105  1
  Co  Co3  1  0.70164709  0.09237435  0.70547357  1
  Fe  Fe4  1  0.77051847  0.72466010  0.24851816  1
  Fe  Fe5  1  0.62673836  0.48234236  0.15149067  1
  Fe  Fe6  1  0.53693939  0.47731630  0.51036078  1
  Fe  Fe7  1  0.05488464  0.34748958  0.08475859  1
  Mn  Mn8  1  0.35367369  0.86647791  0.31502221  1
  Mn  Mn9  1  0.95351400  0.34316740  0.46050842  1
  Mn  Mn10  1  0.34618904  0.21634463  0.40796280  1
  Mn  Mn11  1  0.27514188  0.23498009  0.73026740  1
  Ni  Ni12  1  0.16162051  0.94877691  0.64060754  1
  Ni  Ni13  1  0.58766670  0.79720810  0.60921449  1
  Ni  Ni14  1  0.88575136  0.70846808  0.89748641  1
  Ni  Ni15  1  0.78562200  0.40236242  0.80779429  1
  Zr  Zr16  1  0.06235237  0.62499689  0.56778885  1
  Zr  Zr17  1  0.50127444  0.17640715  0.03018670  1
  Zr  Zr18  1  0.83247256  0.06956432  0.36626409  1
  Zr  Zr19  1  0.03370699  0.99085740  0.98629554  1
