# generated using pymatgen
data_MnFeCoNiRu
_symmetry_space_group_name_H-M   'P 1'
_cell_length_a   4.42555102
_cell_length_b   6.75350180
_cell_length_c   8.82330738
_cell_angle_alpha   70.86536705
_cell_angle_beta   80.79842728
_cell_angle_gamma   70.88390847
_symmetry_Int_Tables_number   1
_chemical_formula_structural   MnFeCoNiRu
_chemical_formula_sum   'Mn4 Fe4 Co4 Ni4 Ru4'
_cell_volume   234.99410602
_cell_formula_units_Z   4
loop_
 _symmetry_equiv_pos_site_id
 _symmetry_equiv_pos_as_xyz
  1  'x, y, z'
loop_
 _atom_site_type_symbol
 _atom_site_label
 _atom_site_symmetry_multiplicity
 _atom_site_fract_x
 _atom_site_fract_y
 _atom_site_fract_z
 _atom_site_occupancy
  Co  Co0  1  0.90699995  0.69054221  0.74988901  1
  Co  Co1  1  0.90616408  0.70270433  0.25105672  1
  Co  Co2  1  0.39275324  0.20091612  0.99705170  1
  Co  Co3  1  0.01194096  0.99967410  0.99989286  1
  Fe  Fe4  1  0.49567986  0.50306390  0.75171500  1
  Fe  Fe5  1  0.09697614  0.30445446  0.75502265  1
  Fe  Fe6  1  0.19480467  0.60197140  0.50066495  1
  Fe  Fe7  1  0.99834675  0.99141804  0.50398503  1
  Mn  Mn8  1  0.79665533  0.40684963  0.49587084  1
  Mn  Mn9  1  0.60303803  0.80284863  0.00469502  1
  Mn  Mn10  1  0.79614950  0.39500857  0.99207215  1
  Mn  Mn11  1  0.09559365  0.30485067  0.24571793  1
  Ni  Ni12  1  0.60279814  0.79264207  0.50012210  1
  Ni  Ni13  1  0.30214594  0.89681423  0.25161921  1
  Ni  Ni14  1  0.50130026  0.50998155  0.24659788  1
  Ni  Ni15  1  0.19284051  0.59498056  0.00480009  1
  Ru  Ru16  1  0.30644471  0.89274538  0.75255068  1
  Ru  Ru17  1  0.70503803  0.10082730  0.75503191  1
  Ru  Ru18  1  0.39285134  0.20407266  0.49802217  1
  Ru  Ru19  1  0.70147891  0.10363419  0.24362212  1
