# generated using pymatgen
data_MnFeCoCuNi
_symmetry_space_group_name_H-M   'P 1'
_cell_length_a   6.18223392
_cell_length_b   6.18059469
_cell_length_c   6.68520880
_cell_angle_alpha   89.75171811
_cell_angle_beta   108.34978332
_cell_angle_gamma   108.90679754
_symmetry_Int_Tables_number   1
_chemical_formula_structural   MnFeCoCuNi
_chemical_formula_sum   'Mn4 Fe4 Co4 Cu4 Ni4'
_cell_volume   228.01030865
_cell_formula_units_Z   4
loop_
 _symmetry_equiv_pos_site_id
 _symmetry_equiv_pos_as_xyz
  1  'x, y, z'
loop_
 _atom_site_type_symbol
 _atom_site_label
 _atom_site_symmetry_multiplicity
 _atom_site_fract_x
 _atom_site_fract_y
 _atom_site_fract_z
 _atom_site_occupancy
  Co  Co0  1  0.29285643  0.09584989  0.80242413  1
  Co  Co1  1  0.65561632  0.55077731  0.39584156  1
  Co  Co2  1  0.95129305  0.64881029  0.20257738  1
  Co  Co3  1  0.25097214  0.75870792  0.00419244  1
  Cu  Cu4  1  0.59579637  0.20092062  0.59794614  1
  Cu  Cu5  1  0.14790153  0.04639342  0.40308853  1
  Cu  Cu6  1  0.74557743  0.24761352  0.99823031  1
  Cu  Cu7  1  0.50754324  0.50362002  0.00054171  1
  Fe  Fe8  1  0.53850408  0.84897604  0.79803909  1
  Fe  Fe9  1  0.90062356  0.30601090  0.39360208  1
  Fe  Fe10  1  0.84689845  0.94409680  0.59896326  1
  Fe  Fe11  1  0.44398519  0.14343663  0.19439072  1
  Mn  Mn12  1  0.05725182  0.35303492  0.80525439  1
  Mn  Mn13  1  0.81062427  0.60822444  0.79880156  1
  Mn  Mn14  1  0.20611254  0.40658512  0.20338617  1
  Mn  Mn15  1  0.99614641  0.99276191  0.99667231  1
  Ni  Ni16  1  0.35288224  0.45173135  0.60388498  1
  Ni  Ni17  1  0.10110551  0.69724099  0.60314792  1
  Ni  Ni18  1  0.39961886  0.79648650  0.39888915  1
  Ni  Ni19  1  0.69869053  0.89872138  0.20012617  1
