# generated using pymatgen
data_ZnCrFeCoNi
_symmetry_space_group_name_H-M   'P 1'
_cell_length_a   6.79463579
_cell_length_b   9.07412378
_cell_length_c   4.41197940
_cell_angle_alpha   108.37791405
_cell_angle_beta   102.24316013
_cell_angle_gamma   65.17430224
_symmetry_Int_Tables_number   1
_chemical_formula_structural   ZnCrFeCoNi
_chemical_formula_sum   'Zn4 Cr4 Fe4 Co4 Ni4'
_cell_volume   233.28784107
_cell_formula_units_Z   4
loop_
 _symmetry_equiv_pos_site_id
 _symmetry_equiv_pos_as_xyz
  1  'x, y, z'
loop_
 _atom_site_type_symbol
 _atom_site_label
 _atom_site_symmetry_multiplicity
 _atom_site_fract_x
 _atom_site_fract_y
 _atom_site_fract_z
 _atom_site_occupancy
  Co  Co0  1  0.99633913  0.50735624  0.50041076  1
  Co  Co1  1  0.59872945  0.59396068  0.58776739  1
  Co  Co2  1  0.90180027  0.90107322  0.40406623  1
  Co  Co3  1  0.70821556  0.69204475  0.20370766  1
  Cr  Cr4  1  0.10614461  0.58580059  0.10222478  1
  Cr  Cr5  1  0.08506050  0.09983491  0.58477533  1
  Cr  Cr6  1  0.40834741  0.40184409  0.38976407  1
  Cr  Cr7  1  0.51135780  0.50415710  0.99420066  1
  Fe  Fe8  1  0.20191440  0.68925312  0.70115858  1
  Fe  Fe9  1  0.29872654  0.31082044  0.79478348  1
  Fe  Fe10  1  0.69448282  0.20736593  0.72095425  1
  Fe  Fe11  1  0.61208745  0.10760923  0.11952601  1
  Ni  Ni12  1  0.29338163  0.79312999  0.30586117  1
  Ni  Ni13  1  0.99899327  0.99912916  0.99909472  1
  Ni  Ni14  1  0.89546380  0.40401141  0.88335427  1
  Ni  Ni15  1  0.79756750  0.30451854  0.29972052  1
  Zn  Zn16  1  0.39574675  0.89112263  0.90490924  1
  Zn  Zn17  1  0.80451370  0.79766862  0.80861245  1
  Zn  Zn18  1  0.18888975  0.21002098  0.18862136  1
  Zn  Zn19  1  0.50223766  0.99927836  0.50648709  1
