# generated using pymatgen
data_CrFeCoNiOs
_symmetry_space_group_name_H-M   'P 1'
_cell_length_a   4.41858948
_cell_length_b   5.72827618
_cell_length_c   9.84342180
_cell_angle_alpha   73.48806456
_cell_angle_beta   81.67045915
_cell_angle_gamma   82.69359501
_symmetry_Int_Tables_number   1
_chemical_formula_structural   CrFeCoNiOs
_chemical_formula_sum   'Cr4 Fe4 Co4 Ni4 Os4'
_cell_volume   235.37816484
_cell_formula_units_Z   4
loop_
 _symmetry_equiv_pos_site_id
 _symmetry_equiv_pos_as_xyz
  1  'x, y, z'
loop_
 _atom_site_type_symbol
 _atom_site_label
 _atom_site_symmetry_multiplicity
 _atom_site_fract_x
 _atom_site_fract_y
 _atom_site_fract_z
 _atom_site_occupancy
  Co  Co0  1  0.50206521  0.99323655  0.49937726  1
  Co  Co1  1  0.75578823  0.59907935  0.45008722  1
  Co  Co2  1  0.99947407  0.39025367  0.80294911  1
  Co  Co3  1  0.49967925  0.19957825  0.90136093  1
  Cr  Cr4  1  0.75826497  0.99735336  0.25014894  1
  Cr  Cr5  1  0.49324011  0.39153891  0.30099385  1
  Cr  Cr6  1  0.48545123  0.81629710  0.09002767  1
  Cr  Cr7  1  0.75953085  0.80285110  0.84840782  1
  Fe  Fe8  1  0.99164944  0.00684901  0.99898694  1
  Fe  Fe9  1  0.25371191  0.20765644  0.14536835  1
  Fe  Fe10  1  0.25239010  0.39449076  0.55788112  1
  Fe  Fe11  1  0.50067848  0.59736164  0.70152166  1
  Ni  Ni12  1  0.74841413  0.39550594  0.05304074  1
  Ni  Ni13  1  0.98734479  0.60578431  0.19561209  1
  Ni  Ni14  1  0.25557239  0.00551464  0.75073526  1
  Ni  Ni15  1  0.74657898  0.20236173  0.65548154  1
  Os  Os16  1  0.99406557  0.20796360  0.40027736  1
  Os  Os17  1  0.27292293  0.78853855  0.34320266  1
  Os  Os18  1  0.99294840  0.79992274  0.60474424  1
  Os  Os19  1  0.25022898  0.59786235  0.94979524  1
