# generated using pymatgen
data_AlZnFeCoNi
_symmetry_space_group_name_H-M   'P 1'
_cell_length_a   5.10419762
_cell_length_b   6.51723869
_cell_length_c   8.25315426
_cell_angle_alpha   110.05748944
_cell_angle_beta   96.94531148
_cell_angle_gamma   102.52783281
_symmetry_Int_Tables_number   1
_chemical_formula_structural   AlZnFeCoNi
_chemical_formula_sum   'Al4 Zn4 Fe4 Co4 Ni4'
_cell_volume   245.97486282
_cell_formula_units_Z   4
loop_
 _symmetry_equiv_pos_site_id
 _symmetry_equiv_pos_as_xyz
  1  'x, y, z'
loop_
 _atom_site_type_symbol
 _atom_site_label
 _atom_site_symmetry_multiplicity
 _atom_site_fract_x
 _atom_site_fract_y
 _atom_site_fract_z
 _atom_site_occupancy
  Al  Al0  1  0.82147824  0.38520609  0.59659442  1
  Al  Al1  1  0.36756806  0.17206834  0.29273409  1
  Al  Al2  1  0.56517046  0.80197855  0.72556025  1
  Al  Al3  1  0.08492729  0.82299927  0.74171516  1
  Co  Co4  1  0.75723058  0.58466881  0.88502486  1
  Co  Co5  1  0.32913791  0.39495464  0.58705383  1
  Co  Co6  1  0.15711753  0.60074985  0.41699742  1
  Co  Co7  1  0.11795860  0.75754963  0.17273187  1
  Fe  Fe8  1  0.89006041  0.22320371  0.29958093  1
  Fe  Fe9  1  0.42476985  0.22608082  0.79762958  1
  Fe  Fe10  1  0.77623165  0.40805036  0.10598092  1
  Fe  Fe11  1  0.27794440  0.40721476  0.10619413  1
  Ni  Ni12  1  0.52771854  0.99259072  0.49502059  1
  Ni  Ni13  1  0.45894508  0.02090751  0.00698112  1
  Ni  Ni14  1  0.25379244  0.58534169  0.88415286  1
  Ni  Ni15  1  0.95648649  0.01139980  0.01649533  1
  Zn  Zn16  1  0.91876635  0.20615870  0.81248764  1
  Zn  Zn17  1  0.65305100  0.60788852  0.40320444  1
  Zn  Zn18  1  0.03371712  0.99081640  0.48206725  1
  Zn  Zn19  1  0.62792796  0.80017183  0.17179331  1
