# generated using pymatgen
data_Ti3V
_symmetry_space_group_name_H-M   'P 1'
_cell_length_a   6.38926948
_cell_length_b   6.47144329
_cell_length_c   6.31494524
_cell_angle_alpha   90.04340555
_cell_angle_beta   90.25826345
_cell_angle_gamma   92.78645383
_symmetry_Int_Tables_number   1
_chemical_formula_structural   Ti3V
_chemical_formula_sum   'Ti12 V4'
_cell_volume   260.79756799
_cell_formula_units_Z   4
loop_
 _symmetry_equiv_pos_site_id
 _symmetry_equiv_pos_as_xyz
  1  'x, y, z'
loop_
 _atom_site_type_symbol
 _atom_site_label
 _atom_site_symmetry_multiplicity
 _atom_site_fract_x
 _atom_site_fract_y
 _atom_site_fract_z
 _atom_site_occupancy
  V  V0  1  0.73001896  0.04006994  0.98954770  1
  V  V1  1  0.47255397  0.23540409  0.75562466  1
  V  V2  1  0.27870658  0.98299547  0.50845453  1
  V  V3  1  0.27112953  0.97103594  0.99289718  1
  Ti  Ti4  1  0.23194005  0.51200275  0.49778138  1
  Ti  Ti5  1  0.72334110  0.03827192  0.50958662  1
  Ti  Ti6  1  0.46837860  0.24335839  0.24289421  1
  Ti  Ti7  1  0.23074975  0.51885326  0.00373787  1
  Ti  Ti8  1  0.98886075  0.77769918  0.24913523  1
  Ti  Ti9  1  0.98804439  0.77753588  0.75047228  1
  Ti  Ti10  1  0.76204476  0.48266454  0.50425623  1
  Ti  Ti11  1  0.01781502  0.21639881  0.24649664  1
  Ti  Ti12  1  0.76160101  0.47250498  0.99336770  1
  Ti  Ti13  1  0.03311889  0.22003558  0.75470845  1
  Ti  Ti14  1  0.52198877  0.75796674  0.24220786  1
  Ti  Ti15  1  0.51970790  0.75320258  0.75883145  1
