# generated using pymatgen
data_Ti3V
_symmetry_space_group_name_H-M   'P 1'
_cell_length_a   7.12700021
_cell_length_b   7.12700021
_cell_length_c   6.30038711
_cell_angle_alpha   90.00000000
_cell_angle_beta   90.00000000
_cell_angle_gamma   125.55191690
_symmetry_Int_Tables_number   1
_chemical_formula_structural   Ti3V
_chemical_formula_sum   'Ti12 V4'
_cell_volume   260.36694290
_cell_formula_units_Z   4
loop_
 _symmetry_equiv_pos_site_id
 _symmetry_equiv_pos_as_xyz
  1  'x, y, z'
loop_
 _atom_site_type_symbol
 _atom_site_label
 _atom_site_symmetry_multiplicity
 _atom_site_fract_x
 _atom_site_fract_y
 _atom_site_fract_z
 _atom_site_occupancy
  Ti  Ti0  1  0.62024844  0.89099089  0.76775223  1
  Ti  Ti1  1  0.21902345  0.73387587  0.50000000  1
  Ti  Ti2  1  0.14099089  0.37024844  0.76775223  1
  Ti  Ti3  1  0.62024844  0.89099089  0.23224777  1
  Ti  Ti4  1  0.52741206  0.52878523  0.50000000  1
  Ti  Ti5  1  0.39387004  0.14387004  0.75278545  1
  Ti  Ti6  1  0.21350250  0.73732723  0.00000000  1
  Ti  Ti7  1  0.14099089  0.37024844  0.23224777  1
  Ti  Ti8  1  0.98387587  0.96902345  0.50000000  1
  Ti  Ti9  1  0.77878523  0.27741206  0.50000000  1
  Ti  Ti10  1  0.39387004  0.14387004  0.24721455  1
  Ti  Ti11  1  0.98732723  0.96350250  0.00000000  1
  V  V12  1  0.83989362  0.58989362  0.76399418  1
  V  V13  1  0.83989362  0.58989362  0.23600582  1
  V  V14  1  0.53117429  0.51889341  0.00000000  1
  V  V15  1  0.76889341  0.28117429  0.00000000  1
