# generated using pymatgen
data_Ti5V3
_symmetry_space_group_name_H-M   'P 1'
_cell_length_a   5.63915465
_cell_length_b   4.26704511
_cell_length_c   10.74878425
_cell_angle_alpha   90.00000000
_cell_angle_beta   101.38312504
_cell_angle_gamma   90.00000000
_symmetry_Int_Tables_number   1
_chemical_formula_structural   Ti5V3
_chemical_formula_sum   'Ti10 V6'
_cell_volume   253.55523904
_cell_formula_units_Z   2
loop_
 _symmetry_equiv_pos_site_id
 _symmetry_equiv_pos_as_xyz
  1  'x, y, z'
loop_
 _atom_site_type_symbol
 _atom_site_label
 _atom_site_symmetry_multiplicity
 _atom_site_fract_x
 _atom_site_fract_y
 _atom_site_fract_z
 _atom_site_occupancy
  V  V0  1  0.62117997  0.00000000  0.97269193  1
  V  V1  1  0.06672088  0.50000000  0.14054121  1
  V  V2  1  0.01448660  0.50000000  0.37866015  1
  V  V3  1  0.67637702  0.00000000  0.75247316  1
  V  V4  1  0.83818854  0.50000000  0.88405597  1
  V  V5  1  0.34863451  0.50000000  0.88785302  1
  Ti  Ti6  1  0.55543055  0.50000000  0.12243583  1
  Ti  Ti7  1  0.85528062  0.00000000  0.22961712  1
  Ti  Ti8  1  0.12389401  0.00000000  0.99404420  1
  Ti  Ti9  1  0.34519377  0.00000000  0.23784950  1
  Ti  Ti10  1  0.50613779  0.50000000  0.38735307  1
  Ti  Ti11  1  0.78767159  0.00000000  0.48502661  1
  Ti  Ti12  1  0.89693908  0.50000000  0.63997240  1
  Ti  Ti13  1  0.27527338  0.00000000  0.49115850  1
  Ti  Ti14  1  0.41101841  0.50000000  0.64573829  1
  Ti  Ti15  1  0.17757323  0.00000000  0.75052902  1
