# generated using pymatgen
data_TiV
_symmetry_space_group_name_H-M   'P 1'
_cell_length_a   6.98592102
_cell_length_b   6.89887727
_cell_length_c   6.28033825
_cell_angle_alpha   89.85896022
_cell_angle_beta   90.60248766
_cell_angle_gamma   126.18064025
_symmetry_Int_Tables_number   1
_chemical_formula_structural   TiV
_chemical_formula_sum   'Ti8 V8'
_cell_volume   244.29578567
_cell_formula_units_Z   8
loop_
 _symmetry_equiv_pos_site_id
 _symmetry_equiv_pos_as_xyz
  1  'x, y, z'
loop_
 _atom_site_type_symbol
 _atom_site_label
 _atom_site_symmetry_multiplicity
 _atom_site_fract_x
 _atom_site_fract_y
 _atom_site_fract_z
 _atom_site_occupancy
  Ti  Ti0  1  0.64956942  0.89331936  0.75690326  1
  Ti  Ti1  1  0.24970700  0.73887143  0.50652886  1
  Ti  Ti2  1  0.63382002  0.89122562  0.24745371  1
  Ti  Ti3  1  0.49117998  0.48377438  0.50254629  1
  Ti  Ti4  1  0.08312117  0.34855918  0.23496637  1
  Ti  Ti5  1  0.04187883  0.02644082  0.51503363  1
  Ti  Ti6  1  0.87529300  0.63612857  0.24347114  1
  Ti  Ti7  1  0.47543058  0.48168064  0.99309674  1
  V  V8  1  0.08720112  0.36133795  0.76536564  1
  V  V9  1  0.87591012  0.62828179  0.75723399  1
  V  V10  1  0.39241311  0.11548110  0.76150383  1
  V  V11  1  0.24908988  0.74671821  0.99276601  1
  V  V12  1  0.73866855  0.25974802  0.51281294  1
  V  V13  1  0.38633145  0.11525198  0.23718706  1
  V  V14  1  0.03779888  0.01366205  0.98463436  1
  V  V15  1  0.73258689  0.25951890  0.98849617  1
