# generated using pymatgen
data_Ti7Al
_symmetry_space_group_name_H-M   'P 1'
_cell_length_a   5.09410193
_cell_length_b   5.45596673
_cell_length_c   11.45771335
_cell_angle_alpha   90.15114267
_cell_angle_beta   103.11783854
_cell_angle_gamma   117.40471370
_symmetry_Int_Tables_number   1
_chemical_formula_structural   Ti7Al
_chemical_formula_sum   'Ti14 Al2'
_cell_volume   273.21248344
_cell_formula_units_Z   2
loop_
 _symmetry_equiv_pos_site_id
 _symmetry_equiv_pos_as_xyz
  1  'x, y, z'
loop_
 _atom_site_type_symbol
 _atom_site_label
 _atom_site_symmetry_multiplicity
 _atom_site_fract_x
 _atom_site_fract_y
 _atom_site_fract_z
 _atom_site_occupancy
  Al  Al0  1  0.64296186  0.09599221  0.59569560  1
  Al  Al1  1  0.73203814  0.77900779  0.77930440  1
  Ti  Ti2  1  0.85400915  0.33325531  0.83878668  1
  Ti  Ti3  1  0.86855720  0.40130908  0.40743299  1
  Ti  Ti4  1  0.61282057  0.15596405  0.15531683  1
  Ti  Ti5  1  0.24435777  0.21845713  0.71822070  1
  Ti  Ti6  1  0.02735103  0.97001989  0.47025770  1
  Ti  Ti7  1  0.52099085  0.54174469  0.53621332  1
  Ti  Ti8  1  0.24279868  0.28230035  0.27977770  1
  Ti  Ti9  1  0.76217943  0.71903595  0.21968317  1
  Ti  Ti10  1  0.98628176  0.03195982  0.02687622  1
  Ti  Ti11  1  0.50644280  0.47369092  0.96756701  1
  Ti  Ti12  1  0.34764897  0.90498011  0.90474230  1
  Ti  Ti13  1  0.13064223  0.65654287  0.65677930  1
  Ti  Ti14  1  0.38871824  0.84304018  0.34812378  1
  Ti  Ti15  1  0.13220132  0.59269965  0.09522230  1
