# generated using pymatgen
data_Ti3Al
_symmetry_space_group_name_H-M   'P 1'
_cell_length_a   8.31438038
_cell_length_b   8.31438038
_cell_length_c   5.89746534
_cell_angle_alpha   90.00000000
_cell_angle_beta   90.00000000
_cell_angle_gamma   138.50007605
_symmetry_Int_Tables_number   1
_chemical_formula_structural   Ti3Al
_chemical_formula_sum   'Ti12 Al4'
_cell_volume   270.14012471
_cell_formula_units_Z   4
loop_
 _symmetry_equiv_pos_site_id
 _symmetry_equiv_pos_as_xyz
  1  'x, y, z'
loop_
 _atom_site_type_symbol
 _atom_site_label
 _atom_site_symmetry_multiplicity
 _atom_site_fract_x
 _atom_site_fract_y
 _atom_site_fract_z
 _atom_site_occupancy
  Ti  Ti0  1  0.61963503  0.87678278  0.75220999  1
  Ti  Ti1  1  0.25286602  0.75652886  0.50000000  1
  Ti  Ti2  1  0.12678278  0.36963503  0.75220999  1
  Ti  Ti3  1  0.61963503  0.87678278  0.24779001  1
  Ti  Ti4  1  0.49588912  0.49140751  0.50000000  1
  Ti  Ti5  1  0.37060746  0.12060746  0.74926162  1
  Ti  Ti6  1  0.25375963  0.76414227  -0.00000000  1
  Ti  Ti7  1  0.12678278  0.36963503  0.24779001  1
  Ti  Ti8  1  0.00652886  0.00286602  0.50000000  1
  Ti  Ti9  1  0.74140751  0.24588912  0.50000000  1
  Ti  Ti10  1  0.37060746  0.12060746  0.25073838  1
  Ti  Ti11  1  0.01414227  0.00375963  -0.00000000  1
  Al  Al12  1  0.87268946  0.62268946  0.75440124  1
  Al  Al13  1  0.87268946  0.62268946  0.24559876  1
  Al  Al14  1  0.50205989  0.50391723  -0.00000000  1
  Al  Al15  1  0.75391723  0.25205989  -0.00000000  1
