# generated using pymatgen
data_TaMnFeCoNi
_symmetry_space_group_name_H-M   'P 1'
_cell_length_a   6.71500709
_cell_length_b   6.86037578
_cell_length_c   8.57957414
_cell_angle_alpha   95.45394829
_cell_angle_beta   89.81677452
_cell_angle_gamma   140.91528896
_symmetry_Int_Tables_number   1
_chemical_formula_structural   TaMnFeCoNi
_chemical_formula_sum   'Ta4 Mn4 Fe4 Co4 Ni4'
_cell_volume   246.48445960
_cell_formula_units_Z   4
loop_
 _symmetry_equiv_pos_site_id
 _symmetry_equiv_pos_as_xyz
  1  'x, y, z'
loop_
 _atom_site_type_symbol
 _atom_site_label
 _atom_site_symmetry_multiplicity
 _atom_site_fract_x
 _atom_site_fract_y
 _atom_site_fract_z
 _atom_site_occupancy
  Co  Co0  1  0.91866632  0.11629626  0.50653138  1
  Co  Co1  1  0.77768809  0.18840455  0.99309215  1
  Co  Co2  1  0.65127618  0.86386218  0.75190336  1
  Co  Co3  1  0.24347770  0.24225893  0.75005923  1
  Fe  Fe4  1  0.85115407  0.65355498  0.75183084  1
  Fe  Fe5  1  0.74091437  0.32446180  0.52516525  1
  Fe  Fe6  1  0.93561606  0.54657288  0.27407541  1
  Fe  Fe7  1  0.54325325  0.36792523  0.99884666  1
  Mn  Mn8  1  0.78842470  0.75927521  0.22504078  1
  Mn  Mn9  1  0.35188512  0.15122601  0.25008353  1
  Mn  Mn10  1  0.04074992  0.41677760  0.74332528  1
  Mn  Mn11  1  0.96146278  0.98180463  0.97544867  1
  Ni  Ni12  1  0.45058963  0.05211562  0.75236175  1
  Ni  Ni13  1  0.29869443  0.69951298  0.51256236  1
  Ni  Ni14  1  0.40075920  0.60569712  0.98255927  1
  Ni  Ni15  1  0.13786607  0.92663512  0.50303468  1
  Ta  Ta16  1  0.53446233  0.52993436  0.50562359  1
  Ta  Ta17  1  0.55386858  0.96175469  0.27100484  1
  Ta  Ta18  1  0.16389867  0.34767978  0.22700777  1
  Ta  Ta19  1  0.15529253  0.76425008  0.00044320  1
