# generated using pymatgen
data_MnFeCoNiIr
_symmetry_space_group_name_H-M   'P 1'
_cell_length_a   6.79908098
_cell_length_b   6.78750397
_cell_length_c   8.49631827
_cell_angle_alpha   92.72451812
_cell_angle_beta   93.77191182
_cell_angle_gamma   141.98905073
_symmetry_Int_Tables_number   1
_chemical_formula_structural   MnFeCoNiIr
_chemical_formula_sum   'Mn4 Fe4 Co4 Ni4 Ir4'
_cell_volume   237.76270856
_cell_formula_units_Z   4
loop_
 _symmetry_equiv_pos_site_id
 _symmetry_equiv_pos_as_xyz
  1  'x, y, z'
loop_
 _atom_site_type_symbol
 _atom_site_label
 _atom_site_symmetry_multiplicity
 _atom_site_fract_x
 _atom_site_fract_y
 _atom_site_fract_z
 _atom_site_occupancy
  Co  Co0  1  0.94859741  0.55684072  0.25250627  1
  Co  Co1  1  0.65473760  0.85425513  0.74967610  1
  Co  Co2  1  0.50609260  0.50975710  0.50411827  1
  Co  Co3  1  0.03935407  0.44169508  0.74567058  1
  Fe  Fe4  1  0.45196415  0.04634558  0.75114882  1
  Fe  Fe5  1  0.79556521  0.19434786  0.99488466  1
  Fe  Fe6  1  0.74855897  0.74176637  0.25757839  1
  Fe  Fe7  1  0.35192734  0.14853860  0.25046446  1
  Ir  Ir8  1  0.31117306  0.71170902  0.50675942  1
  Ir  Ir9  1  0.14074044  0.33963018  0.25314216  1
  Ir  Ir10  1  0.99251522  0.99210819  0.99732044  1
  Ir  Ir11  1  0.20539169  0.79664367  0.99655642  1
  Mn  Mn12  1  0.90938271  0.10784969  0.50352398  1
  Mn  Mn13  1  0.70374018  0.31152544  0.50162335  1
  Mn  Mn14  1  0.59707589  0.39471871  0.99830376  1
  Mn  Mn15  1  0.54765101  0.95311584  0.25158081  1
  Ni  Ni16  1  0.84373910  0.64263042  0.74433851  1
  Ni  Ni17  1  0.25003453  0.24876729  0.74476009  1
  Ni  Ni18  1  0.39687984  0.59491713  0.99366105  1
  Ni  Ni19  1  0.10487898  0.91283801  0.50238247  1
