# generated using pymatgen
data_MnCrFeCoNi
_symmetry_space_group_name_H-M   'P 1'
_cell_length_a   7.41417956
_cell_length_b   7.38379513
_cell_length_c   4.30538945
_cell_angle_alpha   95.20414244
_cell_angle_beta   95.24636696
_cell_angle_gamma   113.01617232
_symmetry_Int_Tables_number   1
_chemical_formula_structural   MnCrFeCoNi
_chemical_formula_sum   'Mn4 Cr4 Fe4 Co4 Ni4'
_cell_volume   213.95996398
_cell_formula_units_Z   4
loop_
 _symmetry_equiv_pos_site_id
 _symmetry_equiv_pos_as_xyz
  1  'x, y, z'
loop_
 _atom_site_type_symbol
 _atom_site_label
 _atom_site_symmetry_multiplicity
 _atom_site_fract_x
 _atom_site_fract_y
 _atom_site_fract_z
 _atom_site_occupancy
  Co  Co0  1  0.19841626  0.80033810  0.00038654  1
  Co  Co1  1  0.25352419  0.24798799  0.75822458  1
  Co  Co2  1  0.64967589  0.84900928  0.74875954  1
  Co  Co3  1  0.80085814  0.20096011  0.00506012  1
  Cr  Cr4  1  0.98842362  0.99856427  0.99265182  1
  Cr  Cr5  1  0.39799934  0.59772544  0.98769627  1
  Cr  Cr6  1  0.55636657  0.94681590  0.25478497  1
  Cr  Cr7  1  0.34069143  0.15195648  0.25612952  1
  Fe  Fe8  1  0.29477633  0.69904709  0.49062259  1
  Fe  Fe9  1  0.75590917  0.74993058  0.24882321  1
  Fe  Fe10  1  0.69432432  0.29755073  0.49439806  1
  Fe  Fe11  1  0.95014962  0.55106300  0.25459924  1
  Mn  Mn12  1  0.10311291  0.89180062  0.49521675  1
  Mn  Mn13  1  0.15792819  0.35953181  0.25657149  1
  Mn  Mn14  1  0.50711212  0.50674594  0.50409014  1
  Mn  Mn15  1  0.84775177  0.65130911  0.74719601  1
  Ni  Ni16  1  0.04966086  0.44953137  0.75223789  1
  Ni  Ni17  1  0.60179010  0.40314793  0.00040224  1
  Ni  Ni18  1  0.44784778  0.04722709  0.75327195  1
  Ni  Ni19  1  0.90368142  0.09975716  0.49887705  1
