# generated using pymatgen
data_MnCdFeCoNi
_symmetry_space_group_name_H-M   'P 1'
_cell_length_a   5.32183811
_cell_length_b   5.99835337
_cell_length_c   9.09718359
_cell_angle_alpha   74.79090655
_cell_angle_beta   73.87167337
_cell_angle_gamma   76.58693090
_symmetry_Int_Tables_number   1
_chemical_formula_structural   MnCdFeCoNi
_chemical_formula_sum   'Mn4 Cd4 Fe4 Co4 Ni4'
_cell_volume   265.20772032
_cell_formula_units_Z   4
loop_
 _symmetry_equiv_pos_site_id
 _symmetry_equiv_pos_as_xyz
  1  'x, y, z'
loop_
 _atom_site_type_symbol
 _atom_site_label
 _atom_site_symmetry_multiplicity
 _atom_site_fract_x
 _atom_site_fract_y
 _atom_site_fract_z
 _atom_site_occupancy
  Cd  Cd0  1  0.82131452  0.60776914  0.08019105  1
  Cd  Cd1  1  0.70398794  0.40000260  0.39640322  1
  Cd  Cd2  1  0.27980962  0.59011309  0.60058790  1
  Cd  Cd3  1  0.37519920  0.79375417  0.82210032  1
  Co  Co4  1  0.30034830  0.59367418  0.12807583  1
  Co  Co5  1  0.22185980  0.36422324  0.90596706  1
  Co  Co6  1  0.78979974  0.60084260  0.60162468  1
  Co  Co7  1  0.70209167  0.38488276  0.88918316  1
  Fe  Fe8  1  0.12750043  0.18962326  0.19766301  1
  Fe  Fe9  1  0.20018156  0.38145946  0.38956994  1
  Fe  Fe10  1  0.38912060  0.82151192  0.28674553  1
  Fe  Fe11  1  0.93094807  0.80483434  0.31235601  1
  Mn  Mn12  1  0.98879244  0.04005622  0.00676196  1
  Mn  Mn13  1  0.60121789  0.17719759  0.19480277  1
  Mn  Mn14  1  0.50322328  0.99620060  0.50553735  1
  Mn  Mn15  1  0.87645921  0.83231750  0.77842476  1
  Ni  Ni16  1  0.50686701  0.01252495  0.00102704  1
  Ni  Ni17  1  0.00724666  0.00721358  0.49692889  1
  Ni  Ni18  1  0.07706968  0.20105216  0.69833354  1
  Ni  Ni19  1  0.59696237  0.20074663  0.70771600  1
