# generated using pymatgen
data_HfCrFeCoNi
_symmetry_space_group_name_H-M   'P 1'
_cell_length_a   5.91520676
_cell_length_b   6.49003748
_cell_length_c   7.85932989
_cell_angle_alpha   104.85596992
_cell_angle_beta   98.89267727
_cell_angle_gamma   110.61552534
_symmetry_Int_Tables_number   1
_chemical_formula_structural   HfCrFeCoNi
_chemical_formula_sum   'Hf4 Cr4 Fe4 Co4 Ni4'
_cell_volume   262.77057331
_cell_formula_units_Z   4
loop_
 _symmetry_equiv_pos_site_id
 _symmetry_equiv_pos_as_xyz
  1  'x, y, z'
loop_
 _atom_site_type_symbol
 _atom_site_label
 _atom_site_symmetry_multiplicity
 _atom_site_fract_x
 _atom_site_fract_y
 _atom_site_fract_z
 _atom_site_occupancy
  Co  Co0  1  0.47143402  0.37792640  0.69708119  1
  Co  Co1  1  0.76221067  0.81883183  0.63548254  1
  Co  Co2  1  0.23396318  0.79584345  0.15165095  1
  Co  Co3  1  0.01274057  0.00781443  0.00144266  1
  Cr  Cr4  1  0.97799233  0.64642695  0.83602637  1
  Cr  Cr5  1  0.26948002  0.58085572  0.50941725  1
  Cr  Cr6  1  0.01124915  0.40864071  0.19287004  1
  Cr  Cr7  1  0.46621978  0.20107788  0.10172998  1
  Fe  Fe8  1  0.25820245  0.37730867  0.95674508  1
  Fe  Fe9  1  0.03975396  0.81360283  0.41113098  1
  Fe  Fe10  1  0.26432250  0.19980244  0.34986656  1
  Fe  Fe11  1  0.47574953  0.59525059  0.28230255  1
  Hf  Hf12  1  0.48753237  0.75469863  0.88018407  1
  Hf  Hf13  1  0.74827185  0.20335456  0.83139330  1
  Hf  Hf14  1  0.74766757  0.43237504  0.47679591  1
  Hf  Hf15  1  0.77052730  -0.00094665  0.26610769  1
  Ni  Ni16  1  0.23572435  0.98662406  0.74829322  1
  Ni  Ni17  1  0.02671565  0.22101435  0.60698266  1
  Ni  Ni18  1  0.48813523  0.99143888  0.49500676  1
  Ni  Ni19  1  0.75210749  0.58805923  0.06949027  1
