# generated using pymatgen
data_VCrFeCoNi
_symmetry_space_group_name_H-M   'P 1'
_cell_length_a   4.35710338
_cell_length_b   5.56130229
_cell_length_c   9.82310315
_cell_angle_alpha   73.78307507
_cell_angle_beta   81.44731552
_cell_angle_gamma   83.21171689
_symmetry_Int_Tables_number   1
_chemical_formula_structural   VCrFeCoNi
_chemical_formula_sum   'V4 Cr4 Fe4 Co4 Ni4'
_cell_volume   225.27497671
_cell_formula_units_Z   4
loop_
 _symmetry_equiv_pos_site_id
 _symmetry_equiv_pos_as_xyz
  1  'x, y, z'
loop_
 _atom_site_type_symbol
 _atom_site_label
 _atom_site_symmetry_multiplicity
 _atom_site_fract_x
 _atom_site_fract_y
 _atom_site_fract_z
 _atom_site_occupancy
  Co  Co0  1  0.00057918  0.99728642  0.00030869  1
  Co  Co1  1  0.24956083  0.19987745  0.14741506  1
  Co  Co2  1  0.74825270  0.99808062  0.25242237  1
  Co  Co3  1  0.24108274  -0.00008160  0.75225082  1
  Cr  Cr4  1  0.50702896  0.79991020  0.10689874  1
  Cr  Cr5  1  0.24957656  0.41843461  0.55173345  1
  Cr  Cr6  1  0.49415221  0.58434764  0.69950829  1
  Cr  Cr7  1  0.24438678  0.61018016  0.96618459  1
  Fe  Fe8  1  0.23939695  0.79465891  0.35368024  1
  Fe  Fe9  1  0.74642637  0.60946043  0.44380258  1
  Fe  Fe10  1  0.01019543  0.39217641  0.80031362  1
  Fe  Fe11  1  0.00565103  0.79236380  0.59774737  1
  Ni  Ni12  1  0.75958192  0.40008464  0.05262688  1
  Ni  Ni13  1  0.99785184  0.61130497  0.20092976  1
  Ni  Ni14  1  0.49565499  0.39760254  0.29893487  1
  Ni  Ni15  1  0.76322398  0.20110997  0.64299358  1
  V  V16  1  0.99287324  0.21109925  0.38741957  1
  V  V17  1  0.49301221  0.97485898  0.50931125  1
  V  V18  1  0.50181952  0.21423172  0.89900486  1
  V  V19  1  0.75969254  0.79301287  0.83651344  1
