# generated using pymatgen
data_VCrFeCoNi
_symmetry_space_group_name_H-M   'P 1'
_cell_length_a   4.60399314
_cell_length_b   6.88057837
_cell_length_c   7.83503761
_cell_angle_alpha   111.73464817
_cell_angle_beta   96.01602715
_cell_angle_gamma   88.29228594
_symmetry_Int_Tables_number   1
_chemical_formula_structural   VCrFeCoNi
_chemical_formula_sum   'V4 Cr4 Fe4 Co4 Ni4'
_cell_volume   229.27393533
_cell_formula_units_Z   4
loop_
 _symmetry_equiv_pos_site_id
 _symmetry_equiv_pos_as_xyz
  1  'x, y, z'
loop_
 _atom_site_type_symbol
 _atom_site_label
 _atom_site_symmetry_multiplicity
 _atom_site_fract_x
 _atom_site_fract_y
 _atom_site_fract_z
 _atom_site_occupancy
  Co  Co0  1  0.73638783  0.27855880  0.26831582  1
  Co  Co1  1  0.80819697  0.60003250  0.81593584  1
  Co  Co2  1  0.47845632  0.51479466  0.53174481  1
  Co  Co3  1  0.20569126  0.40404847  0.19555376  1
  Cr  Cr4  1  0.52991848  0.84913658  0.04684573  1
  Cr  Cr5  1  0.60904460  0.19413107  0.59710879  1
  Cr  Cr6  1  0.23050031  0.77865795  0.76309735  1
  Cr  Cr7  1  0.02594434  0.36133864  0.55516854  1
  Fe  Fe8  1  0.65966471  0.53487729  0.12538430  1
  Fe  Fe9  1  0.11294518  0.69517050  0.09928843  1
  Fe  Fe10  1  0.34608148  0.44388341  0.83561347  1
  Fe  Fe11  1  0.16979150  0.03728245  0.62014423  1
  Ni  Ni12  1  0.95065712  0.64680079  0.44535775  1
  Ni  Ni13  1  0.70730784  0.89405608  0.70213662  1
  Ni  Ni14  1  0.98342939  0.00419690  0.02307133  1
  Ni  Ni15  1  0.44514474  0.14574393  0.94694952  1
  V  V16  1  0.85598560  0.94860305  0.33996208  1
  V  V17  1  0.41996636  0.77369337  0.39160202  1
  V  V18  1  0.92185364  0.27314687  0.88693064  1
  V  V19  1  0.30303235  0.12184667  0.30978896  1
