# generated using pymatgen
data_MnCdFeCoNi
_symmetry_space_group_name_H-M   'P 1'
_cell_length_a   9.86283899
_cell_length_b   9.94686362
_cell_length_c   4.94569877
_cell_angle_alpha   95.30456503
_cell_angle_beta   94.76952336
_cell_angle_gamma   145.01588017
_symmetry_Int_Tables_number   1
_chemical_formula_structural   MnCdFeCoNi
_chemical_formula_sum   'Mn4 Cd4 Fe4 Co4 Ni4'
_cell_volume   266.04977116
_cell_formula_units_Z   4
loop_
 _symmetry_equiv_pos_site_id
 _symmetry_equiv_pos_as_xyz
  1  'x, y, z'
loop_
 _atom_site_type_symbol
 _atom_site_label
 _atom_site_symmetry_multiplicity
 _atom_site_fract_x
 _atom_site_fract_y
 _atom_site_fract_z
 _atom_site_occupancy
  Cd  Cd0  1  0.11029390  0.19292781  0.60987697  1
  Cd  Cd1  1  0.19029853  0.39401831  0.18592781  1
  Cd  Cd2  1  0.59400834  0.20875672  0.59271852  1
  Cd  Cd3  1  0.51126717  0.00957453  0.02352432  1
  Co  Co4  1  0.69063918  0.89624071  0.18871013  1
  Co  Co5  1  0.88928453  0.78353195  0.38970312  1
  Co  Co6  1  0.72828719  0.43994362  0.18482818  1
  Co  Co7  1  0.77342348  0.05946634  0.77852047  1
  Fe  Fe8  1  0.08966998  0.69459859  0.57950148  1
  Fe  Fe9  1  0.32129532  0.61582000  0.79339945  1
  Fe  Fe10  1  0.40427438  0.80053815  0.43324876  1
  Fe  Fe11  1  0.98018271  0.97412066  0.02429190  1
  Mn  Mn12  1  0.17417048  0.88968257  0.18937912  1
  Mn  Mn13  1  0.00696738  0.49853124  0.01028485  1
  Mn  Mn14  1  0.61090527  0.70152014  0.59372821  1
  Mn  Mn15  1  0.78792753  0.60456494  0.78290661  1
  Ni  Ni16  1  0.27462673  0.08547734  0.81282932  1
  Ni  Ni17  1  0.40880524  0.30067758  0.36358263  1
  Ni  Ni18  1  0.52836637  0.52555176  0.00910708  1
  Ni  Ni19  1  0.92530629  0.32445704  0.45393108  1
