# generated using pymatgen
data_MnFeCoReNi
_symmetry_space_group_name_H-M   'P 1'
_cell_length_a   6.77942749
_cell_length_b   6.61201445
_cell_length_c   7.78191983
_cell_angle_alpha   124.65215440
_cell_angle_beta   123.75494026
_cell_angle_gamma   67.14284535
_symmetry_Int_Tables_number   1
_chemical_formula_structural   MnFeCoReNi
_chemical_formula_sum   'Mn4 Fe4 Co4 Re4 Ni4'
_cell_volume   237.23559577
_cell_formula_units_Z   4
loop_
 _symmetry_equiv_pos_site_id
 _symmetry_equiv_pos_as_xyz
  1  'x, y, z'
loop_
 _atom_site_type_symbol
 _atom_site_label
 _atom_site_symmetry_multiplicity
 _atom_site_fract_x
 _atom_site_fract_y
 _atom_site_fract_z
 _atom_site_occupancy
  Co  Co0  1  0.44454309  0.94982004  0.29093020  1
  Co  Co1  1  0.00930796  0.99840784  0.99592764  1
  Co  Co2  1  0.79783919  0.79494763  0.19897236  1
  Co  Co3  1  0.86076828  0.35741221  0.91126523  1
  Fe  Fe4  1  0.04146327  0.55292696  0.69591532  1
  Fe  Fe5  1  0.39397113  0.39973485  0.60613876  1
  Fe  Fe6  1  0.70585381  0.68985432  0.80330723  1
  Fe  Fe7  1  0.50769492  0.51317330  0.00904455  1
  Mn  Mn8  1  0.34229730  0.84750826  0.89726667  1
  Mn  Mn9  1  0.19411107  0.21132974  0.80510548  1
  Mn  Mn10  1  0.29469707  0.29859089  0.20236778  1
  Mn  Mn11  1  0.89985059  0.89631068  0.59289957  1
  Ni  Ni12  1  0.15331357  0.64943801  0.09228449  1
  Ni  Ni13  1  0.60199069  0.59628670  0.39677810  1
  Ni  Ni14  1  0.74444933  0.25031949  0.50802629  1
  Ni  Ni15  1  0.94242327  0.45333556  0.29695840  1
  Re  Re16  1  0.25398344  0.74073584  0.49459636  1
  Re  Re17  1  0.09576158  0.10012863  0.39466507  1
  Re  Re18  1  0.57190384  0.05134410  0.70569410  1
  Re  Re19  1  0.64377661  0.14839492  0.10185637  1
