# generated using pymatgen
data_MnFeCoNiAg
_symmetry_space_group_name_H-M   'P 1'
_cell_length_a   7.34878640
_cell_length_b   6.41725408
_cell_length_c   7.06328959
_cell_angle_alpha   71.74986162
_cell_angle_beta   75.37753477
_cell_angle_gamma   55.15299480
_symmetry_Int_Tables_number   1
_chemical_formula_structural   MnFeCoNiAg
_chemical_formula_sum   'Mn4 Fe4 Co4 Ni4 Ag4'
_cell_volume   258.45891871
_cell_formula_units_Z   4
loop_
 _symmetry_equiv_pos_site_id
 _symmetry_equiv_pos_as_xyz
  1  'x, y, z'
loop_
 _atom_site_type_symbol
 _atom_site_label
 _atom_site_symmetry_multiplicity
 _atom_site_fract_x
 _atom_site_fract_y
 _atom_site_fract_z
 _atom_site_occupancy
  Ag  Ag0  1  0.90776905  0.79471475  0.79273613  1
  Ag  Ag1  1  0.85091985  0.71280351  0.19950772  1
  Ag  Ag2  1  0.73571360  0.48887674  0.00629948  1
  Ag  Ag3  1  0.11918724  0.20075334  0.19877041  1
  Co  Co4  1  0.39601896  0.79515321  0.78779521  1
  Co  Co5  1  0.31824531  0.59512785  0.58644536  1
  Co  Co6  1  0.46007298  0.88010100  0.41238584  1
  Co  Co7  1  0.27860531  0.51122431  0.99047477  1
  Fe  Fe8  1  0.63105779  0.30349899  0.79479072  1
  Fe  Fe9  1  0.77835500  0.60510397  0.59493336  1
  Fe  Fe10  1  0.68037114  0.40239094  0.41989128  1
  Fe  Fe11  1  0.55809548  0.20918752  0.21421588  1
  Mn  Mn12  1  0.95652925  0.91069645  0.39228408  1
  Mn  Mn13  1  0.53254229  0.10126290  0.60018481  1
  Mn  Mn14  1  0.17872090  0.28520304  0.79634352  1
  Mn  Mn15  1  0.06328324  0.09527641  0.60029802  1
  Ni  Ni16  1  0.49784631  0.00557001  0.99457977  1
  Ni  Ni17  1  0.19269420  0.41195188  0.41992982  1
  Ni  Ni18  1  0.34345645  0.69280221  0.21223443  1
  Ni  Ni19  1  0.02051565  0.99830100  0.98589938  1
