# generated using pymatgen
data_MnFeCoNiW
_symmetry_space_group_name_H-M   'P 1'
_cell_length_a   6.79864212
_cell_length_b   6.78629445
_cell_length_c   8.49230311
_cell_angle_alpha   93.09245261
_cell_angle_beta   93.57857846
_cell_angle_gamma   142.19708684
_symmetry_Int_Tables_number   1
_chemical_formula_structural   MnFeCoNiW
_chemical_formula_sum   'Mn4 Fe4 Co4 Ni4 W4'
_cell_volume   236.25366598
_cell_formula_units_Z   4
loop_
 _symmetry_equiv_pos_site_id
 _symmetry_equiv_pos_as_xyz
  1  'x, y, z'
loop_
 _atom_site_type_symbol
 _atom_site_label
 _atom_site_symmetry_multiplicity
 _atom_site_fract_x
 _atom_site_fract_y
 _atom_site_fract_z
 _atom_site_occupancy
  Co  Co0  1  0.49274309  0.49021384  0.50033776  1
  Co  Co1  1  0.59148809  0.39227409  0.00389992  1
  Co  Co2  1  0.28859599  0.69235649  0.49435040  1
  Co  Co3  1  0.54866488  0.95896911  0.25328979  1
  Fe  Fe4  1  0.85005834  0.65664835  0.74201884  1
  Fe  Fe5  1  0.93723383  0.53680756  0.25298629  1
  Fe  Fe6  1  0.79859274  0.19642917  0.00887012  1
  Fe  Fe7  1  0.09913109  0.88616603  0.49495328  1
  Mn  Mn8  1  0.69520099  0.31408776  0.49175029  1
  Mn  Mn9  1  0.25424864  0.24555029  0.74997539  1
  Mn  Mn10  1  0.36869022  0.17411696  0.26042473  1
  Mn  Mn11  1  0.00428482  0.00455272  0.99706388  1
  Ni  Ni12  1  0.65702408  0.84597419  0.74996985  1
  Ni  Ni13  1  0.76084957  0.75322699  0.25143820  1
  Ni  Ni14  1  0.06109408  0.45646302  0.74743656  1
  Ni  Ni15  1  0.15152075  0.35106433  0.25056048  1
  W  W16  1  0.88946386  0.09041131  0.49687945  1
  W  W17  1  0.47121876  0.06327250  0.74295451  1
  W  W18  1  0.40747422  0.59953247  0.00399723  1
  W  W19  1  0.17242195  0.79188284  0.00684302  1
