# generated using pymatgen
data_MnCrFeCoNi
_symmetry_space_group_name_H-M   'P 1'
_cell_length_a   8.86398969
_cell_length_b   8.60150829
_cell_length_c   8.99717441
_cell_angle_alpha   151.95235181
_cell_angle_beta   57.16991977
_cell_angle_gamma   136.11687642
_symmetry_Int_Tables_number   1
_chemical_formula_structural   MnCrFeCoNi
_chemical_formula_sum   'Mn4 Cr4 Fe4 Co4 Ni4'
_cell_volume   214.09740754
_cell_formula_units_Z   4
loop_
 _symmetry_equiv_pos_site_id
 _symmetry_equiv_pos_as_xyz
  1  'x, y, z'
loop_
 _atom_site_type_symbol
 _atom_site_label
 _atom_site_symmetry_multiplicity
 _atom_site_fract_x
 _atom_site_fract_y
 _atom_site_fract_z
 _atom_site_occupancy
  Co  Co0  1  0.50161414  0.49232038  0.48572710  1
  Co  Co1  1  0.49762410  0.00400665  0.50963548  1
  Co  Co2  1  0.99857788  0.50246804  0.00563462  1
  Co  Co3  1  0.59827097  0.19961144  0.99581331  1
  Cr  Cr4  1  0.30520536  0.61635014  0.51106784  1
  Cr  Cr5  1  0.30457090  0.09005958  0.48484950  1
  Cr  Cr6  1  0.00203331  0.99035713  0.98686254  1
  Cr  Cr7  1  0.59296923  0.69931276  0.00852338  1
  Fe  Fe8  1  0.70014307  0.40022957  0.49801827  1
  Fe  Fe9  1  0.20564854  0.40022669  0.99684377  1
  Fe  Fe10  1  0.40040553  0.30575611  0.00802744  1
  Fe  Fe11  1  0.79568159  0.58315897  0.99226830  1
  Mn  Mn12  1  0.10251850  0.69686990  0.49176852  1
  Mn  Mn13  1  0.70064315  0.90138794  0.50200334  1
  Mn  Mn14  1  0.90284517  0.80501645  0.50798963  1
  Mn  Mn15  1  0.19353215  0.91612055  0.02030634  1
  Ni  Ni16  1  0.09882993  0.20207537  0.50233541  1
  Ni  Ni17  1  0.89783412  0.29609008  0.49667579  1
  Ni  Ni18  1  0.40054143  0.79649763  0.99251934  1
  Ni  Ni19  1  0.80051092  0.10208462  0.00313010  1
