# generated using pymatgen
data_CrFeCoNiPd
_symmetry_space_group_name_H-M   'P 1'
_cell_length_a   6.88898699
_cell_length_b   6.16005578
_cell_length_c   6.66402431
_cell_angle_alpha   93.54004474
_cell_angle_beta   98.48986562
_cell_angle_gamma   61.58455611
_symmetry_Int_Tables_number   1
_chemical_formula_structural   CrFeCoNiPd
_chemical_formula_sum   'Cr4 Fe4 Co4 Ni4 Pd4'
_cell_volume   245.98942035
_cell_formula_units_Z   4
loop_
 _symmetry_equiv_pos_site_id
 _symmetry_equiv_pos_as_xyz
  1  'x, y, z'
loop_
 _atom_site_type_symbol
 _atom_site_label
 _atom_site_symmetry_multiplicity
 _atom_site_fract_x
 _atom_site_fract_y
 _atom_site_fract_z
 _atom_site_occupancy
  Co  Co0  1  0.08528911  0.56194776  0.94001006  1
  Co  Co1  1  0.29071387  0.95936770  0.54738739  1
  Co  Co2  1  0.24930256  0.39318156  0.62051952  1
  Co  Co3  1  0.18846977  0.25387532  0.22808337  1
  Cr  Cr4  1  0.38070658  0.66603929  0.81987499  1
  Cr  Cr5  1  0.55047348  0.49716866  0.51852791  1
  Cr  Cr6  1  0.17382300  0.67973280  0.32180516  1
  Cr  Cr7  1  0.80235666  0.46333142  0.03790172  1
  Fe  Fe8  1  0.69413766  0.76016779  0.75897578  1
  Fe  Fe9  1  0.44403668  0.81022851  0.19616653  1
  Fe  Fe10  1  0.75829765  0.88811212  0.09650980  1
  Fe  Fe11  1  0.06453583  0.97983061  0.99728106  1
  Ni  Ni12  1  0.99532527  0.85425495  0.65129212  1
  Ni  Ni13  1  0.35924131  0.08702330  0.89935018  1
  Ni  Ni14  1  0.66835167  0.19245609  0.81224780  1
  Ni  Ni15  1  0.96409732  0.29089444  0.72118595  1
  Pd  Pd16  1  0.86204756  0.58973904  0.41023368  1
  Pd  Pd17  1  0.57853014  0.06339294  0.45151574  1
  Pd  Pd18  1  0.90512126  0.14097995  0.34141145  1
  Pd  Pd19  1  0.48514261  0.36827577  0.12971981  1
