# generated using pymatgen
data_ScMnFeCoNi
_symmetry_space_group_name_H-M   'P 1'
_cell_length_a   7.37022053
_cell_length_b   7.13831166
_cell_length_c   6.56948970
_cell_angle_alpha   86.83299043
_cell_angle_beta   93.01915104
_cell_angle_gamma   128.24582140
_symmetry_Int_Tables_number   1
_chemical_formula_structural   ScMnFeCoNi
_chemical_formula_sum   'Sc4 Mn4 Fe4 Co4 Ni4'
_cell_volume   270.95256186
_cell_formula_units_Z   4
loop_
 _symmetry_equiv_pos_site_id
 _symmetry_equiv_pos_as_xyz
  1  'x, y, z'
loop_
 _atom_site_type_symbol
 _atom_site_label
 _atom_site_symmetry_multiplicity
 _atom_site_fract_x
 _atom_site_fract_y
 _atom_site_fract_z
 _atom_site_occupancy
  Co  Co0  1  0.52579643  0.76255997  0.71858447  1
  Co  Co1  1  0.54751797  0.90313347  0.04231743  1
  Co  Co2  1  0.52599967  0.51832335  0.01485601  1
  Co  Co3  1  0.86709821  0.56747590  0.03625292  1
  Fe  Fe4  1  0.20780176  0.65543642  0.18577590  1
  Fe  Fe5  1  0.40308172  0.12403522  0.08762907  1
  Fe  Fe6  1  0.78084454  0.66860597  0.70330864  1
  Fe  Fe7  1  0.83588216  0.24093737  0.23019065  1
  Mn  Mn8  1  0.14520081  0.51739688  0.53023567  1
  Mn  Mn9  1  0.20601221  0.80790535  0.79504281  1
  Mn  Mn10  1  0.57333774  0.70709503  0.35841556  1
  Mn  Mn11  1  0.46362735  0.97364520  0.44660750  1
  Ni  Ni12  1  0.15931286  0.44166651  0.90568921  1
  Ni  Ni13  1  0.21355877  0.29816563  0.26854531  1
  Ni  Ni14  1  0.61995535  0.38974887  0.36621257  1
  Ni  Ni15  1  0.89106584  0.06934270  0.54114652  1
  Sc  Sc16  1  0.02603884  0.82328554  0.37668990  1
  Sc  Sc17  1  0.93768554  0.99363753  0.97349038  1
  Sc  Sc18  1  0.33263256  0.28250673  0.65712547  1
  Sc  Sc19  1  0.73754967  0.25509635  0.76188402  1
