# generated using pymatgen
data_MnFeCoNiAg
_symmetry_space_group_name_H-M   'P 1'
_cell_length_a   4.51319828
_cell_length_b   6.81662706
_cell_length_c   8.52974358
_cell_angle_alpha   105.14337031
_cell_angle_beta   99.62220594
_cell_angle_gamma   97.73803767
_symmetry_Int_Tables_number   1
_chemical_formula_structural   MnFeCoNiAg
_chemical_formula_sum   'Mn4 Fe4 Co4 Ni4 Ag4'
_cell_volume   245.31720761
_cell_formula_units_Z   4
loop_
 _symmetry_equiv_pos_site_id
 _symmetry_equiv_pos_as_xyz
  1  'x, y, z'
loop_
 _atom_site_type_symbol
 _atom_site_label
 _atom_site_symmetry_multiplicity
 _atom_site_fract_x
 _atom_site_fract_y
 _atom_site_fract_z
 _atom_site_occupancy
  Ag  Ag0  1  0.49756282  0.00711560  0.50512268  1
  Ag  Ag1  1  0.44984282  0.80859993  0.95765668  1
  Ag  Ag2  1  0.15227371  0.60661151  0.64815386  1
  Ag  Ag3  1  0.40790725  0.58895872  0.38881078  1
  Co  Co4  1  0.77341599  -0.00133317  0.25513038  1
  Co  Co5  1  0.73590672  0.81380230  0.70948811  1
  Co  Co6  1  0.94042140  0.81071257  0.44177738  1
  Co  Co7  1  0.09847638  0.39700140  0.08680384  1
  Fe  Fe8  1  0.61198119  0.40980899  0.62435730  1
  Fe  Fe9  1  0.84387078  0.37956826  0.32755959  1
  Fe  Fe10  1  0.28878078  0.18002069  0.28127576  1
  Fe  Fe11  1  0.54935720  0.21689352  0.05667069  1
  Mn  Mn12  1  0.23396889  0.03771720  0.76461348  1
  Mn  Mn13  1  0.87608062  0.58314299  0.90780464  1
  Mn  Mn14  1  0.34384154  0.37816998  0.85727380  1
  Mn  Mn15  1  0.67579157  0.57017108  0.13184153  1
  Ni  Ni16  1  0.79527330  0.20491822  0.81234673  1
  Ni  Ni17  1  0.05028234  0.20448613  0.54994570  1
  Ni  Ni18  1  0.00049046  0.01042036  0.00041121  1
  Ni  Ni19  1  0.17447420  0.79321377  0.19295589  1
