# generated using pymatgen
data_MnFeCoNiRh
_symmetry_space_group_name_H-M   'P 1'
_cell_length_a   5.68869810
_cell_length_b   6.76835082
_cell_length_c   6.76813458
_cell_angle_alpha   68.92002340
_cell_angle_beta   85.51789832
_cell_angle_gamma   75.44435494
_symmetry_Int_Tables_number   1
_chemical_formula_structural   MnFeCoNiRh
_chemical_formula_sum   'Mn4 Fe4 Co4 Ni4 Rh4'
_cell_volume   235.32911096
_cell_formula_units_Z   4
loop_
 _symmetry_equiv_pos_site_id
 _symmetry_equiv_pos_as_xyz
  1  'x, y, z'
loop_
 _atom_site_type_symbol
 _atom_site_label
 _atom_site_symmetry_multiplicity
 _atom_site_fract_x
 _atom_site_fract_y
 _atom_site_fract_z
 _atom_site_occupancy
  Co  Co0  1  0.19372546  0.59924408  0.20218150  1
  Co  Co1  1  0.04338953  0.64687343  0.54605289  1
  Co  Co2  1  0.95046948  0.35577614  0.43989513  1
  Co  Co3  1  0.99040433  0.99187298  0.00253305  1
  Fe  Fe4  1  0.75980093  0.74822808  0.23876487  1
  Fe  Fe5  1  0.45085201  0.84260456  0.95364560  1
  Fe  Fe6  1  0.90188172  0.69606880  0.91149082  1
  Fe  Fe7  1  0.55651921  0.14916504  0.04702543  1
  Mn  Mn8  1  0.61238162  0.80142078  0.59592126  1
  Mn  Mn9  1  0.65557513  0.46135601  0.15312729  1
  Mn  Mn10  1  0.85286013  0.05092853  0.33586543  1
  Mn  Mn11  1  0.69358961  0.10080796  0.71139806  1
  Ni  Ni12  1  0.35287807  0.54388214  0.86174294  1
  Ni  Ni13  1  0.80199656  0.40092916  0.80784550  1
  Ni  Ni14  1  0.08977308  0.30607002  0.09555798  1
  Ni  Ni15  1  0.24333646  0.24960434  0.75817570  1
  Rh  Rh16  1  0.29740286  0.90264086  0.28823348  1
  Rh  Rh17  1  0.13947094  0.94827235  0.65476989  1
  Rh  Rh18  1  0.50976917  0.50166229  0.50009873  1
  Rh  Rh19  1  0.40392372  0.20259243  0.39567446  1
