# generated using pymatgen
data_CrFeCoReNi
_symmetry_space_group_name_H-M   'P 1'
_cell_length_a   5.70695873
_cell_length_b   6.74774820
_cell_length_c   6.73053435
_cell_angle_alpha   68.88622858
_cell_angle_beta   85.07502236
_cell_angle_gamma   76.13193995
_symmetry_Int_Tables_number   1
_chemical_formula_structural   CrFeCoReNi
_chemical_formula_sum   'Cr4 Fe4 Co4 Re4 Ni4'
_cell_volume   234.73889102
_cell_formula_units_Z   4
loop_
 _symmetry_equiv_pos_site_id
 _symmetry_equiv_pos_as_xyz
  1  'x, y, z'
loop_
 _atom_site_type_symbol
 _atom_site_label
 _atom_site_symmetry_multiplicity
 _atom_site_fract_x
 _atom_site_fract_y
 _atom_site_fract_z
 _atom_site_occupancy
  Co  Co0  1  0.14922355  0.95552312  0.65299592  1
  Co  Co1  1  0.20603153  0.59270381  0.20045664  1
  Co  Co2  1  0.09248355  0.30445651  0.09933764  1
  Co  Co3  1  0.70222669  0.09684946  0.69790482  1
  Cr  Cr4  1  0.88690764  0.71423274  0.89684641  1
  Cr  Cr5  1  0.65842272  0.44743886  0.15017235  1
  Cr  Cr6  1  0.05642677  0.63533630  0.56356053  1
  Cr  Cr7  1  0.39429451  0.21135885  0.40742717  1
  Fe  Fe8  1  0.44599446  0.84990540  0.94518827  1
  Fe  Fe9  1  0.50400462  0.49444905  0.49658460  1
  Fe  Fe10  1  0.24877252  0.24317714  0.75080256  1
  Fe  Fe11  1  0.00151515  0.01026566  0.99239509  1
  Ni  Ni12  1  0.59941578  0.80599285  0.60200770  1
  Ni  Ni13  1  0.95715080  0.34329179  0.45031653  1
  Ni  Ni14  1  0.80722555  0.40137693  0.79254861  1
  Ni  Ni15  1  0.84633408  0.05349770  0.35379013  1
  Re  Re16  1  0.28251590  0.89298917  0.30200020  1
  Re  Re17  1  0.76078740  0.73887866  0.25871283  1
  Re  Re18  1  0.34531113  0.55922405  0.84634573  1
  Re  Re19  1  0.55495563  0.14905192  0.04060625  1
