# generated using pymatgen
data_CrFeCoReNi
_symmetry_space_group_name_H-M   'P 1'
_cell_length_a   5.70689270
_cell_length_b   6.74265651
_cell_length_c   6.72481227
_cell_angle_alpha   68.95899939
_cell_angle_beta   84.85805181
_cell_angle_gamma   76.83649180
_symmetry_Int_Tables_number   1
_chemical_formula_structural   CrFeCoReNi
_chemical_formula_sum   'Cr4 Fe4 Co4 Re4 Ni4'
_cell_volume   235.15971008
_cell_formula_units_Z   4
loop_
 _symmetry_equiv_pos_site_id
 _symmetry_equiv_pos_as_xyz
  1  'x, y, z'
loop_
 _atom_site_type_symbol
 _atom_site_label
 _atom_site_symmetry_multiplicity
 _atom_site_fract_x
 _atom_site_fract_y
 _atom_site_fract_z
 _atom_site_occupancy
  Co  Co0  1  0.14946155  0.95517965  0.65304653  1
  Co  Co1  1  0.20559806  0.59190611  0.20127880  1
  Co  Co2  1  0.09254853  0.30382609  0.09877179  1
  Co  Co3  1  0.70270740  0.09738888  0.69794925  1
  Cr  Cr4  1  0.88748649  0.71373326  0.89661367  1
  Cr  Cr5  1  0.65884044  0.44682045  0.14981011  1
  Cr  Cr6  1  0.05622179  0.63551283  0.56375632  1
  Cr  Cr7  1  0.39353401  0.21155519  0.40715164  1
  Fe  Fe8  1  0.44530950  0.85087829  0.94494867  1
  Fe  Fe9  1  0.50381220  0.49510166  0.49623273  1
  Fe  Fe10  1  0.24921444  0.24302488  0.75102557  1
  Fe  Fe11  1  0.00058534  0.01042300  0.99200853  1
  Ni  Ni12  1  0.59945861  0.80609152  0.60182983  1
  Ni  Ni13  1  0.95690846  0.34387597  0.45059937  1
  Ni  Ni14  1  0.80718465  0.40164344  0.79247489  1
  Ni  Ni15  1  0.84672866  0.05340785  0.35351804  1
  Re  Re16  1  0.28234282  0.89322973  0.30195346  1
  Re  Re17  1  0.76169761  0.73895885  0.25878808  1
  Re  Re18  1  0.34506716  0.55854969  0.84653236  1
  Re  Re19  1  0.55529226  0.14889263  0.04171035  1
