# generated using pymatgen
data_TiC
_symmetry_space_group_name_H-M   'P 1'
_cell_length_a   4.15128606
_cell_length_b   8.30257213
_cell_length_c   8.30257213
_cell_angle_alpha   90.00000000
_cell_angle_beta   90.00000000
_cell_angle_gamma   90.00000000
_symmetry_Int_Tables_number   1
_chemical_formula_structural   TiC
_chemical_formula_sum   'Ti16 C16'
_cell_volume   286.15937308
_cell_formula_units_Z   16
loop_
 _symmetry_equiv_pos_site_id
 _symmetry_equiv_pos_as_xyz
  1  'x, y, z'
loop_
 _atom_site_type_symbol
 _atom_site_label
 _atom_site_symmetry_multiplicity
 _atom_site_fract_x
 _atom_site_fract_y
 _atom_site_fract_z
 _atom_site_occupancy
  Ti  Ti0  1  0.00000000  0.00000000  0.00000000  1
  Ti  Ti1  1  0.00000000  0.25000000  0.25000000  1
  Ti  Ti2  1  0.50000000  0.00000000  0.25000000  1
  Ti  Ti3  1  0.50000000  0.25000000  0.00000000  1
  Ti  Ti4  1  0.00000000  0.00000000  0.50000000  1
  Ti  Ti5  1  0.00000000  0.25000000  0.75000000  1
  Ti  Ti6  1  0.50000000  0.00000000  0.75000000  1
  Ti  Ti7  1  0.50000000  0.25000000  0.50000000  1
  Ti  Ti8  1  0.00000000  0.50000000  0.00000000  1
  Ti  Ti9  1  0.00000000  0.75000000  0.25000000  1
  Ti  Ti10  1  0.50000000  0.50000000  0.25000000  1
  Ti  Ti11  1  0.50000000  0.75000000  0.00000000  1
  Ti  Ti12  1  0.00000000  0.50000000  0.50000000  1
  Ti  Ti13  1  0.00000000  0.75000000  0.75000000  1
  Ti  Ti14  1  0.50000000  0.50000000  0.75000000  1
  Ti  Ti15  1  0.50000000  0.75000000  0.50000000  1
  C  C16  1  0.50000000  0.25000000  0.25000000  1
  C  C17  1  0.50000000  0.00000000  0.00000000  1
  C  C18  1  0.00000000  0.25000000  0.00000000  1
  C  C19  1  0.00000000  0.00000000  0.25000000  1
  C  C20  1  0.50000000  0.25000000  0.75000000  1
  C  C21  1  0.50000000  0.00000000  0.50000000  1
  C  C22  1  0.00000000  0.25000000  0.50000000  1
  C  C23  1  0.00000000  0.00000000  0.75000000  1
  C  C24  1  0.50000000  0.75000000  0.25000000  1
  C  C25  1  0.50000000  0.50000000  0.00000000  1
  C  C26  1  0.00000000  0.75000000  0.00000000  1
  C  C27  1  0.00000000  0.50000000  0.25000000  1
  C  C28  1  0.50000000  0.75000000  0.75000000  1
  C  C29  1  0.50000000  0.50000000  0.50000000  1
  C  C30  1  0.00000000  0.75000000  0.50000000  1
  C  C31  1  0.00000000  0.50000000  0.75000000  1
