# generated using pymatgen
data_Ti4C
_symmetry_space_group_name_H-M   'P 1'
_cell_length_a   6.00733321
_cell_length_b   6.71564800
_cell_length_c   7.88633815
_cell_angle_alpha   85.49877665
_cell_angle_beta   78.70922089
_cell_angle_gamma   76.92204809
_symmetry_Int_Tables_number   1
_chemical_formula_structural   Ti4C
_chemical_formula_sum   'Ti16 C4'
_cell_volume   303.71503927
_cell_formula_units_Z   4
loop_
 _symmetry_equiv_pos_site_id
 _symmetry_equiv_pos_as_xyz
  1  'x, y, z'
loop_
 _atom_site_type_symbol
 _atom_site_label
 _atom_site_symmetry_multiplicity
 _atom_site_fract_x
 _atom_site_fract_y
 _atom_site_fract_z
 _atom_site_occupancy
  C  C0  1  0.77740813  0.06949721  0.82065457  1
  C  C1  1  0.65607739  0.80352054  0.56163358  1
  C  C2  1  0.34042554  0.19085810  0.43786831  1
  C  C3  1  0.84657847  0.18642729  0.43052508  1
  Ti  Ti4  1  0.68475595  0.37841007  0.88848796  1
  Ti  Ti5  1  0.18132519  0.39374056  0.88440214  1
  Ti  Ti6  1  0.57180487  0.11514984  0.61992121  1
  Ti  Ti7  1  0.05466028  0.12811216  0.62073134  1
  Ti  Ti8  1  0.87575122  0.75072453  0.75150081  1
  Ti  Ti9  1  0.37722092  0.73149383  0.75695958  1
  Ti  Ti10  1  0.74939482  0.49876464  0.49914709  1
  Ti  Ti11  1  0.24834917  0.49990679  0.50458386  1
  Ti  Ti12  1  0.62040137  0.25720638  0.25570489  1
  Ti  Ti13  1  0.12472593  0.25755748  0.24885486  1
  Ti  Ti14  1  0.50132824  0.98932729  0.00043706  1
  Ti  Ti15  1  0.01233201  0.99033227  0.99301785  1
  Ti  Ti16  1  0.93448327  0.87051281  0.36812528  1
  Ti  Ti17  1  0.44082027  0.87609278  0.37337571  1
  Ti  Ti18  1  0.81639526  0.62538808  0.11343212  1
  Ti  Ti19  1  0.31049259  0.63718993  0.12038961  1
