# generated using pymatgen
data_AlFeCoNiPt
_symmetry_space_group_name_H-M   'P 1'
_cell_length_a   5.86366652
_cell_length_b   7.83718090
_cell_length_c   11.66719542
_cell_angle_alpha   98.07891061
_cell_angle_beta   90.85061785
_cell_angle_gamma   106.78941889
_symmetry_Int_Tables_number   1
_chemical_formula_structural   AlFeCoNiPt
_chemical_formula_sum   'Al8 Fe8 Co8 Ni8 Pt8'
_cell_volume   507.34207183
_cell_formula_units_Z   8
loop_
 _symmetry_equiv_pos_site_id
 _symmetry_equiv_pos_as_xyz
  1  'x, y, z'
loop_
 _atom_site_type_symbol
 _atom_site_label
 _atom_site_symmetry_multiplicity
 _atom_site_fract_x
 _atom_site_fract_y
 _atom_site_fract_z
 _atom_site_occupancy
  Al  Al0  1  0.42158951  0.74971069  0.22662741  1
  Al  Al1  1  0.79614182  0.25280219  0.07379086  1
  Al  Al2  1  0.81905390  0.51699029  0.44780437  1
  Al  Al3  1  0.57424828  0.24002246  0.27168732  1
  Al  Al4  1  0.01071061  0.98305147  0.99830503  1
  Al  Al5  1  0.00049458  0.77224076  0.62493458  1
  Al  Al6  1  0.36993296  0.24292882  0.48147027  1
  Al  Al7  1  0.98724115  0.49367258  0.74749914  1
  Co  Co8  1  0.99352756  0.73964740  0.13105195  1
  Co  Co9  1  0.21719631  0.50504071  0.06325756  1
  Co  Co10  1  0.59566513  0.76513961  0.52462330  1
  Co  Co11  1  0.17998563  0.24833484  0.16657881  1
  Co  Co12  1  0.82556114  0.98722588  0.19198410  1
  Co  Co13  1  0.78048352  0.74448384  0.82647640  1
  Co  Co14  1  0.58512726  0.99318602  0.39838472  1
  Co  Co15  1  0.41206527  0.99140585  0.59910085  1
  Fe  Fe16  1  0.01150988  0.51111687  0.24158293  1
  Fe  Fe17  1  0.42293680  0.75505048  0.72042933  1
  Fe  Fe18  1  0.18077583  0.98268476  0.30116631  1
  Fe  Fe19  1  0.78903654  0.50746570  0.95602793  1
  Fe  Fe20  1  0.42257973  0.49987273  0.85132204  1
  Fe  Fe21  1  0.59352167  0.24669802  0.77818255  1
  Fe  Fe22  1  0.78996813  0.00873415  0.69994625  1
  Fe  Fe23  1  0.60093054  0.98350599  0.89473605  1
  Ni  Ni24  1  0.60725770  0.74232269  0.02714545  1
  Ni  Ni25  1  0.80591028  0.75564614  0.32646150  1
  Ni  Ni26  1  0.60885011  0.49571993  0.14968049  1
  Ni  Ni27  1  0.20104691  0.75687207  0.42561895  1
  Ni  Ni28  1  0.61258301  0.52154723  0.64808875  1
  Ni  Ni29  1  0.19779822  0.52546877  0.55676511  1
  Ni  Ni30  1  0.98487546  0.99391235  0.49540152  1
  Ni  Ni31  1  0.41542795  0.26157868  0.97833642  1
  Pt  Pt32  1  0.41297233  0.49576498  0.35650562  1
  Pt  Pt33  1  0.41031654  0.00031156  0.10439478  1
  Pt  Pt34  1  0.77963564  0.25321214  0.56951013  1
  Pt  Pt35  1  0.97586004  0.24449278  0.36173276  1
  Pt  Pt36  1  0.19704275  0.72239393  0.92182260  1
  Pt  Pt37  1  0.21067865  0.25910468  0.67349866  1
  Pt  Pt38  1  0.99754223  0.25668891  0.88908622  1
  Pt  Pt39  1  0.20191845  0.99395103  0.79898098  1
