# generated using pymatgen
data_TiCrN2
_symmetry_space_group_name_H-M   'P 1'
_cell_length_a   7.28565982
_cell_length_b   7.21829400
_cell_length_c   2.92127392
_cell_angle_alpha   90.00000000
_cell_angle_beta   90.00000000
_cell_angle_gamma   110.08660928
_symmetry_Int_Tables_number   1
_chemical_formula_structural   TiCrN2
_chemical_formula_sum   'Ti4 Cr4 N8'
_cell_volume   144.28528801
_cell_formula_units_Z   4
loop_
 _symmetry_equiv_pos_site_id
 _symmetry_equiv_pos_as_xyz
  1  'x, y, z'
loop_
 _atom_site_type_symbol
 _atom_site_label
 _atom_site_symmetry_multiplicity
 _atom_site_fract_x
 _atom_site_fract_y
 _atom_site_fract_z
 _atom_site_occupancy
  Ti  Ti0  1  0.12266497  0.87566140  0.50000000  1
  Ti  Ti1  1  0.99547329  0.47986287  0.00000000  1
  Ti  Ti2  1  0.25264126  0.25496719  0.00000000  1
  Ti  Ti3  1  0.51196846  0.99758962  0.00000000  1
  N  N4  1  0.13195919  0.37818890  0.50000000  1
  N  N5  1  0.98972523  0.99383216  0.00000000  1
  N  N6  1  0.38369815  0.13011266  0.50000000  1
  N  N7  1  0.24669140  0.75239705  0.00000000  1
  N  N8  1  0.63547349  0.86066219  0.50000000  1
  N  N9  1  0.49398865  0.50374196  0.00000000  1
  N  N10  1  0.87585145  0.62092858  0.50000000  1
  N  N11  1  0.74509340  0.25194082  0.00000000  1
  Cr  Cr12  1  0.87826844  0.12426943  0.50000000  1
  Cr  Cr13  1  0.74178508  0.71512668  0.00000000  1
  Cr  Cr14  1  0.36767852  0.65739430  0.50000000  1
  Cr  Cr15  1  0.62703903  0.40332419  0.50000000  1
