# generated using pymatgen
data_TiBN2
_symmetry_space_group_name_H-M   'P 1'
_cell_length_a   8.81636038
_cell_length_b   7.61405533
_cell_length_c   2.68061874
_cell_angle_alpha   90.00000000
_cell_angle_beta   90.00000000
_cell_angle_gamma   116.30544757
_symmetry_Int_Tables_number   1
_chemical_formula_structural   TiBN2
_chemical_formula_sum   'Ti4 B4 N8'
_cell_volume   161.31090292
_cell_formula_units_Z   4
loop_
 _symmetry_equiv_pos_site_id
 _symmetry_equiv_pos_as_xyz
  1  'x, y, z'
loop_
 _atom_site_type_symbol
 _atom_site_label
 _atom_site_symmetry_multiplicity
 _atom_site_fract_x
 _atom_site_fract_y
 _atom_site_fract_z
 _atom_site_occupancy
  Ti  Ti0  1  0.13561472  0.87449606  0.50000000  1
  Ti  Ti1  1  0.92809531  0.38316422  0.00000000  1
  Ti  Ti2  1  0.22693496  0.24715951  0.00000000  1
  Ti  Ti3  1  0.48257616  0.10520649  0.00000000  1
  N  N4  1  0.06006928  0.29519500  0.50000000  1
  N  N5  1  0.99339003  0.98339500  0.00000000  1
  N  N6  1  0.36336707  0.18464315  0.50000000  1
  N  N7  1  0.30156279  0.79321526  0.00000000  1
  N  N8  1  0.48044738  0.66745088  0.50000000  1
  N  N9  1  0.69687705  0.60829606  0.00000000  1
  N  N10  1  0.93628528  0.58926613  0.50000000  1
  N  N11  1  0.71410229  0.19063199  0.00000000  1
  B  B12  1  0.98924885  0.07640536  0.50000000  1
  B  B13  1  0.55339429  0.64866226  0.00000000  1
  B  B14  1  0.36110641  0.75235802  0.50000000  1
  B  B15  1  0.77692810  0.60045464  0.50000000  1
