# generated using pymatgen
data_AlFeCoNiPt
_symmetry_space_group_name_H-M   'P 1'
_cell_length_a   6.39373531
_cell_length_b   10.81017556
_cell_length_c   11.96992836
_cell_angle_alpha   105.58296366
_cell_angle_beta   100.64889357
_cell_angle_gamma   101.38375036
_symmetry_Int_Tables_number   1
_chemical_formula_structural   AlFeCoNiPt
_chemical_formula_sum   'Al12 Fe12 Co12 Ni12 Pt12'
_cell_volume   756.06133812
_cell_formula_units_Z   12
loop_
 _symmetry_equiv_pos_site_id
 _symmetry_equiv_pos_as_xyz
  1  'x, y, z'
loop_
 _atom_site_type_symbol
 _atom_site_label
 _atom_site_symmetry_multiplicity
 _atom_site_fract_x
 _atom_site_fract_y
 _atom_site_fract_z
 _atom_site_occupancy
  Al  Al0  1  0.65401758  0.83729931  0.17890996  1
  Al  Al1  1  0.46574927  0.38358067  0.02580204  1
  Al  Al2  1  0.08417835  0.74616093  0.46839481  1
  Al  Al3  1  0.52317427  0.84943423  0.71470616  1
  Al  Al4  1  0.00321908  0.50174770  0.50871832  1
  Al  Al5  1  0.27688648  0.93287027  0.87202253  1
  Al  Al6  1  0.46061650  0.12948500  0.25473364  1
  Al  Al7  1  0.61621051  0.84732237  0.94634638  1
  Al  Al8  1  0.52944215  0.11434761  0.48677993  1
  Al  Al9  1  0.53057700  0.61357506  0.97929797  1
  Al  Al10  1  0.73742849  0.31883998  0.88234627  1
  Al  Al11  1  0.93743623  0.02368390  0.78238861  1
  Co  Co12  1  0.93466928  0.76045511  0.02742890  1
  Co  Co13  1  0.12913273  0.97575529  0.42852560  1
  Co  Co14  1  0.85937435  0.53149639  0.06762825  1
  Co  Co15  1  0.80111325  0.29502223  0.09437698  1
  Co  Co16  1  0.40432709  0.15566775  0.03572049  1
  Co  Co17  1  0.72241750  0.56277792  0.62841237  1
  Co  Co18  1  0.20564509  0.19803170  0.39515939  1
  Co  Co19  1  0.33705636  0.42093621  0.58532906  1
  Co  Co20  1  0.20417951  0.70527669  0.89889291  1
  Co  Co21  1  0.39185159  0.40012147  0.79396828  1
  Co  Co22  1  0.34420910  0.17799905  0.83862408  1
  Co  Co23  1  0.65950499  0.08103043  0.90727217  1
  Fe  Fe24  1  0.07030904  0.99052735  0.22205031  1
  Fe  Fe25  1  0.34711147  0.66553008  0.33015092  1
  Fe  Fe26  1  0.65527193  0.58372922  0.41932523  1
  Fe  Fe27  1  0.79204599  0.77832993  0.59670565  1
  Fe  Fe28  1  0.12030688  0.21750456  0.17125018  1
  Fe  Fe29  1  0.26912400  0.42865254  0.37216767  1
  Fe  Fe30  1  0.59223001  0.36099939  0.46085642  1
  Fe  Fe31  1  0.87984334  0.76950854  0.80837529  1
  Fe  Fe32  1  0.08356752  0.48985989  0.72772037  1
  Fe  Fe33  1  0.87086246  0.03203537  0.56391719  1
  Fe  Fe34  1  0.60631533  0.10250541  0.71030852  1
  Fe  Fe35  1  0.06353740  0.23353812  0.97253206  1
  Ni  Ni36  1  0.31857623  0.90744603  0.08593246  1
  Ni  Ni37  1  0.27129975  0.68674754  0.11637588  1
  Ni  Ni38  1  0.39553544  0.90956350  0.30398509  1
  Ni  Ni39  1  0.59486191  0.60189584  0.19546214  1
  Ni  Ni40  1  0.19158096  0.45219580  0.15455703  1
  Ni  Ni41  1  0.47472655  0.88589086  0.51761506  1
  Ni  Ni42  1  0.39452156  0.64208270  0.54323117  1
  Ni  Ni43  1  0.13020165  0.70583072  0.68210756  1
  Ni  Ni44  1  0.46821539  0.63670938  0.76375088  1
  Ni  Ni45  1  0.79827934  0.05139691  0.35326040  1
  Ni  Ni46  1  0.66713272  0.33677649  0.67133215  1
  Ni  Ni47  1  0.99828714  0.24698752  0.75549807  1
  Pt  Pt48  1  0.00434481  0.75597669  0.24152789  1
  Pt  Pt49  1  0.73229462  0.81900088  0.38942518  1
  Pt  Pt50  1  0.20051856  0.94683743  0.65815875  1
  Pt  Pt51  1  0.94331540  0.52605927  0.29265182  1
  Pt  Pt52  1  0.51782049  0.36537936  0.23555734  1
  Pt  Pt53  1  0.00758516  0.99436293  0.98871874  1
  Pt  Pt54  1  0.71838866  0.05499201  0.12571133  1
  Pt  Pt55  1  0.87085982  0.28312360  0.31894533  1
  Pt  Pt56  1  0.92494097  0.26995331  0.54189063  1
  Pt  Pt57  1  0.79085844  0.55085923  0.84779192  1
  Pt  Pt58  1  0.27736731  0.18710474  0.61810034  1
  Pt  Pt59  1  0.14554501  0.46718953  0.94126799  1
