# generated using pymatgen
data_AlFeCoNiPt
_symmetry_space_group_name_H-M   'P 1'
_cell_length_a   8.64882881
_cell_length_b   10.49330427
_cell_length_c   11.38527885
_cell_angle_alpha   96.44560481
_cell_angle_beta   100.38091580
_cell_angle_gamma   90.02731214
_symmetry_Int_Tables_number   1
_chemical_formula_structural   AlFeCoNiPt
_chemical_formula_sum   'Al16 Fe16 Co16 Ni16 Pt16'
_cell_volume   1009.70447728
_cell_formula_units_Z   16
loop_
 _symmetry_equiv_pos_site_id
 _symmetry_equiv_pos_as_xyz
  1  'x, y, z'
loop_
 _atom_site_type_symbol
 _atom_site_label
 _atom_site_symmetry_multiplicity
 _atom_site_fract_x
 _atom_site_fract_y
 _atom_site_fract_z
 _atom_site_occupancy
  Al  Al0  1  0.25425993  0.89299796  0.10784798  1
  Al  Al1  1  0.98629017  0.94612275  0.59009147  1
  Al  Al2  1  0.24466704  0.92650691  0.49278236  1
  Al  Al3  1  0.01409247  0.67336721  0.21102054  1
  Al  Al4  1  0.76344260  0.91905720  0.30839610  1
  Al  Al5  1  0.99983248  0.50933525  0.99764433  1
  Al  Al6  1  0.01209281  0.39300669  0.21428103  1
  Al  Al7  1  0.75238111  0.65620989  0.31160032  1
  Al  Al8  1  0.75595086  0.86722909  0.89872264  1
  Al  Al9  1  0.49173778  0.71395498  0.79272851  1
  Al  Al10  1  0.99806043  0.45320593  0.58737429  1
  Al  Al11  1  0.74500899  0.25643429  0.09408921  1
  Al  Al12  1  0.26525748  0.49294896  0.90050132  1
  Al  Al13  1  0.99158074  0.34417251  0.79875156  1
  Al  Al14  1  0.24774197  0.18946637  0.50404800  1
  Al  Al15  1  0.99451790  0.09447968  0.79785570  1
  Co  Co16  1  0.00013351  0.79676424  0.40528677  1
  Co  Co17  1  0.74670768  0.77233438  0.11575924  1
  Co  Co18  1  0.24684134  0.99122184  0.89726715  1
  Co  Co19  1  0.75062806  0.96581825  0.70152875  1
  Co  Co20  1  0.24358175  0.67918903  0.49090131  1
  Co  Co21  1  0.74255248  0.80687694  0.49559099  1
  Co  Co22  1  0.49586422  0.67888304  0.40375505  1
  Co  Co23  1  0.99324688  0.23927842  0.99245132  1
  Co  Co24  1  0.74569524  0.56631953  0.49903719  1
  Co  Co25  1  0.25450349  0.28462104  0.29944415  1
  Co  Co26  1  0.48584757  0.26416111  0.19650652  1
  Co  Co27  1  0.24966381  0.14009629  0.09876357  1
  Co  Co28  1  0.49117389  0.11746976  0.99577017  1
  Co  Co29  1  0.00796386  0.05550686  0.40421389  1
  Co  Co30  1  0.76225323  0.31229145  0.49845892  1
  Co  Co31  1  0.50122641  0.02747708  0.19257192  1
  Fe  Fe32  1  0.50484897  0.91666572  0.39424132  1
  Fe  Fe33  1  0.50660669  0.78007685  0.20141490  1
  Fe  Fe34  1  0.00724280  0.85356376  0.79556900  1
  Fe  Fe35  1  0.23841804  0.84413501  0.70645807  1
  Fe  Fe36  1  0.99831405  0.70131720  0.59269526  1
  Fe  Fe37  1  0.25689676  0.54527584  0.30756367  1
  Fe  Fe38  1  0.24109938  0.73699475  0.89777391  1
  Fe  Fe39  1  0.00460659  0.60871787  0.80360228  1
  Fe  Fe40  1  0.00037573  0.29283768  0.40280499  1
  Fe  Fe41  1  0.00467255  0.01601693  0.00362933  1
  Fe  Fe42  1  0.24852159  0.33020909  0.70741451  1
  Fe  Fe43  1  0.50692455  0.17641680  0.39203483  1
  Fe  Fe44  1  0.75579641  0.00670951  0.09708497  1
  Fe  Fe45  1  0.24459162  0.22697084  0.89979375  1
  Fe  Fe46  1  0.49438229  0.21511769  0.79763938  1
  Fe  Fe47  1  0.74151515  0.11291787  0.89556868  1
  Ni  Ni48  1  0.99676974  0.91128794  0.21138739  1
  Ni  Ni49  1  0.25726974  0.78618277  0.30391511  1
  Ni  Ni50  1  0.25519861  0.64369686  0.10346100  1
  Ni  Ni51  1  0.49622101  0.62640009  0.00179816  1
  Ni  Ni52  1  0.49305192  0.98052378  0.79605651  1
  Ni  Ni53  1  0.00321892  0.55169592  0.39689471  1
  Ni  Ni54  1  0.49684644  0.57254624  0.59424934  1
  Ni  Ni55  1  0.24228530  0.43270964  0.49259563  1
  Ni  Ni56  1  0.00695398  0.15275778  0.19889963  1
  Ni  Ni57  1  0.75995549  0.41218768  0.31214585  1
  Ni  Ni58  1  0.49983972  0.46897996  0.79718854  1
  Ni  Ni59  1  0.00526006  0.20504683  0.60516410  1
  Ni  Ni60  1  0.75181233  0.35451550  0.89845899  1
  Ni  Ni61  1  0.24011986  0.08076494  0.69696252  1
  Ni  Ni62  1  0.74745286  0.20646700  0.70561865  1
  Ni  Ni63  1  0.49054502  0.07058554  0.59764325  1
  Pt  Pt64  1  0.00771735  0.76603840  0.00813236  1
  Pt  Pt65  1  0.49904723  0.87232692  0.99188150  1
  Pt  Pt66  1  0.48640692  0.82800476  0.59930694  1
  Pt  Pt67  1  0.50121486  0.53363604  0.20079683  1
  Pt  Pt68  1  0.23228647  0.38868196  0.09659095  1
  Pt  Pt69  1  0.78198180  0.51023472  0.11304659  1
  Pt  Pt70  1  0.50171925  0.36731738  0.99368295  1
  Pt  Pt71  1  0.24569579  0.58455760  0.69383057  1
  Pt  Pt72  1  0.75595219  0.71865295  0.69708274  1
  Pt  Pt73  1  0.50313006  0.42342515  0.39888169  1
  Pt  Pt74  1  0.74066256  0.61809221  0.90503411  1
  Pt  Pt75  1  0.76243301  0.45806849  0.69695388  1
  Pt  Pt76  1  0.49233527  0.31645301  0.60081497  1
  Pt  Pt77  1  0.25492175  0.03942724  0.30590990  1
  Pt  Pt78  1  0.75370815  0.16328594  0.29031757  1
  Pt  Pt79  1  0.74837486  0.06470044  0.50496589  1
