# generated using pymatgen
data_TiCrN2
_symmetry_space_group_name_H-M   'P 1'
_cell_length_a   7.27223937
_cell_length_b   7.20505774
_cell_length_c   2.91672444
_cell_angle_alpha   90.00000000
_cell_angle_beta   90.00000000
_cell_angle_gamma   110.15749459
_symmetry_Int_Tables_number   1
_chemical_formula_structural   TiCrN2
_chemical_formula_sum   'Ti4 Cr4 N8'
_cell_volume   143.46649398
_cell_formula_units_Z   4
loop_
 _symmetry_equiv_pos_site_id
 _symmetry_equiv_pos_as_xyz
  1  'x, y, z'
loop_
 _atom_site_type_symbol
 _atom_site_label
 _atom_site_symmetry_multiplicity
 _atom_site_fract_x
 _atom_site_fract_y
 _atom_site_fract_z
 _atom_site_occupancy
  Ti  Ti0  1  0.12224351  0.87588195  0.50000000  1
  Ti  Ti1  1  0.99579935  0.48018447  0.00000000  1
  Ti  Ti2  1  0.25363778  0.25538610  0.00000000  1
  Ti  Ti3  1  0.51196993  0.99737460  0.00000000  1
  N  N4  1  0.13209520  0.37789334  0.50000000  1
  N  N5  1  0.98951784  0.99417923  0.00000000  1
  N  N6  1  0.38411801  0.13018015  0.50000000  1
  N  N7  1  0.24632682  0.75264990  0.00000000  1
  N  N8  1  0.63545415  0.86026406  0.50000000  1
  N  N9  1  0.49415943  0.50430591  0.00000000  1
  N  N10  1  0.87608148  0.62084977  0.50000000  1
  N  N11  1  0.74501063  0.25211100  0.00000000  1
  Cr  Cr12  1  0.87749001  0.12405530  0.50000000  1
  Cr  Cr13  1  0.74227667  0.71535464  0.00000000  1
  Cr  Cr14  1  0.36687933  0.65672156  0.50000000  1
  Cr  Cr15  1  0.62693986  0.40260801  0.50000000  1
