# generated using pymatgen
data_Al3SiN4
_symmetry_space_group_name_H-M   'P 1'
_cell_length_a   8.11432926
_cell_length_b   7.86504393
_cell_length_c   5.89576956
_cell_angle_alpha   107.01128059
_cell_angle_beta   108.11607758
_cell_angle_gamma   83.87113487
_symmetry_Int_Tables_number   1
_chemical_formula_structural   Al3SiN4
_chemical_formula_sum   'Al12 Si4 N16'
_cell_volume   341.91511642
_cell_formula_units_Z   4
loop_
 _symmetry_equiv_pos_site_id
 _symmetry_equiv_pos_as_xyz
  1  'x, y, z'
loop_
 _atom_site_type_symbol
 _atom_site_label
 _atom_site_symmetry_multiplicity
 _atom_site_fract_x
 _atom_site_fract_y
 _atom_site_fract_z
 _atom_site_occupancy
  Si  Si0  1  0.31801328  0.13321664  0.76626330  1
  Si  Si1  1  0.20636402  0.16518095  0.36760009  1
  Si  Si2  1  0.04478206  0.84306858  0.33090491  1
  Si  Si3  1  0.92173413  0.21185888  0.58015212  1
  N  N4  1  0.52645900  0.83062987  0.38933990  1
  N  N5  1  0.13616230  0.94202656  0.14946844  1
  N  N6  1  0.31292677  0.30352130  0.28477674  1
  N  N7  1  0.18500945  0.67242478  0.40390344  1
  N  N8  1  0.82834684  0.76919168  0.15426746  1
  N  N9  1  0.01050661  0.30296540  0.39921839  1
  N  N10  1  0.65218670  0.45645505  0.18910222  1
  N  N11  1  0.70373226  0.15671106  0.39987520  1
  N  N12  1  0.42583644  0.92650479  0.88762177  1
  N  N13  1  0.50080578  0.22423705  0.75124893  1
  N  N14  1  0.27639318  0.57101052  0.90239239  1
  N  N15  1  0.91037034  0.68109222  0.65377519  1
  N  N16  1  0.78730285  0.04797883  0.90566196  1
  N  N17  1  0.01763348  0.00426744  0.59483828  1
  N  N18  1  0.93297514  0.37091698  0.87614081  1
  N  N19  1  0.57558377  0.55631997  0.67679206  1
  Al  Al20  1  0.19030211  0.40048754  0.02419240  1
  Al  Al21  1  0.34075512  0.81440458  0.08468783  1
  Al  Al22  1  0.97231190  0.91648209  0.83047074  1
  Al  Al23  1  0.82218187  0.29105705  0.08147457  1
  Al  Al24  1  0.81227333  0.59358050  0.84379435  1
  Al  Al25  1  0.67090233  0.97233802  0.08479213  1
  Al  Al26  1  0.49085645  0.45828494  0.87639572  1
  Al  Al27  1  0.42075140  0.74128428  0.58557414  1
  Al  Al28  1  0.54813149  0.35955499  0.38421975  1
  Al  Al29  1  0.10777523  0.54719856  0.58102728  1
  Al  Al30  1  0.72886873  0.68261184  0.36055878  1
  Al  Al31  1  0.62176563  0.05313705  0.59946870  1
