# generated using pymatgen
data_HfAl15N16
_symmetry_space_group_name_H-M   'P 1'
_cell_length_a   6.32072021
_cell_length_b   6.32072021
_cell_length_c   10.12752969
_cell_angle_alpha   90.00000000
_cell_angle_beta   90.00000000
_cell_angle_gamma   119.99999997
_symmetry_Int_Tables_number   1
_chemical_formula_structural   HfAl15N16
_chemical_formula_sum   'Hf1 Al15 N16'
_cell_volume   350.40257543
_cell_formula_units_Z   1
loop_
 _symmetry_equiv_pos_site_id
 _symmetry_equiv_pos_as_xyz
  1  'x, y, z'
loop_
 _atom_site_type_symbol
 _atom_site_label
 _atom_site_symmetry_multiplicity
 _atom_site_fract_x
 _atom_site_fract_y
 _atom_site_fract_z
 _atom_site_occupancy
  Hf  Hf0  1  0.16666667  0.33333333  0.24238119  1
  Al  Al1  1  0.33663497  0.16336503  0.99451231  1
  Al  Al2  1  0.16666667  0.33333333  0.75138486  1
  Al  Al3  1  0.33417148  0.16582852  0.50500972  1
  Al  Al4  1  0.16643445  0.83321721  0.25261997  1
  Al  Al5  1  0.33663497  0.67326997  0.99451231  1
  Al  Al6  1  0.16485748  0.83242874  0.74972320  1
  Al  Al7  1  0.33417148  0.66834296  0.50500972  1
  Al  Al8  1  0.66678279  0.33356555  0.25261997  1
  Al  Al9  1  0.82673003  0.16336503  0.99451231  1
  Al  Al10  1  0.66757126  0.33514252  0.74972320  1
  Al  Al11  1  0.83165704  0.16582852  0.50500972  1
  Al  Al12  1  0.66678279  0.83321721  0.25261997  1
  Al  Al13  1  0.83333333  0.66666667  0.99985827  1
  Al  Al14  1  0.66757126  0.83242874  0.74972320  1
  Al  Al15  1  0.83333333  0.66666667  0.50064401  1
  N  N16  1  0.16666667  0.33333333  0.45256908  1
  N  N17  1  0.34486829  0.15513171  0.18387029  1
  N  N18  1  0.16666667  0.33333333  0.94558052  1
  N  N19  1  0.33357762  0.16642238  0.69433072  1
  N  N20  1  0.16795755  0.83397877  0.44270628  1
  N  N21  1  0.34486829  0.68973660  0.18387029  1
  N  N22  1  0.16416911  0.83208454  0.93822877  1
  N  N23  1  0.33357762  0.66715528  0.69433072  1
  N  N24  1  0.66602123  0.33204245  0.44270628  1
  N  N25  1  0.81026340  0.15513171  0.18387029  1
  N  N26  1  0.66791546  0.33583089  0.93822877  1
  N  N27  1  0.83284472  0.16642238  0.69433072  1
  N  N28  1  0.66602123  0.83397877  0.44270628  1
  N  N29  1  0.83333333  0.66666667  0.19076447  1
  N  N30  1  0.66791546  0.83208454  0.93822877  1
  N  N31  1  0.83333333  0.66666667  0.68981375  1
