# generated using pymatgen
data_Al3CrN4
_symmetry_space_group_name_H-M   'P 1'
_cell_length_a   8.01971375
_cell_length_b   7.98320185
_cell_length_c   5.45086722
_cell_angle_alpha   89.49962728
_cell_angle_beta   89.98334398
_cell_angle_gamma   104.71647178
_symmetry_Int_Tables_number   1
_chemical_formula_structural   Al3CrN4
_chemical_formula_sum   'Al12 Cr4 N16'
_cell_volume   337.51842984
_cell_formula_units_Z   4
loop_
 _symmetry_equiv_pos_site_id
 _symmetry_equiv_pos_as_xyz
  1  'x, y, z'
loop_
 _atom_site_type_symbol
 _atom_site_label
 _atom_site_symmetry_multiplicity
 _atom_site_fract_x
 _atom_site_fract_y
 _atom_site_fract_z
 _atom_site_occupancy
  Al  Al0  1  0.01151797  0.49254409  0.33548883  1
  Al  Al1  1  0.24180967  0.24610491  0.33363049  1
  Al  Al2  1  0.12799642  0.37476560  0.83765139  1
  Al  Al3  1  0.49498431  0.01966563  0.34099823  1
  Al  Al4  1  0.36814054  0.12584371  0.83996218  1
  Al  Al5  1  0.88401405  0.62158486  0.82457739  1
  Al  Al6  1  0.86226590  0.11044155  0.16290607  1
  Al  Al7  1  0.74732945  0.24329133  0.67195403  1
  Al  Al8  1  0.11757472  0.86885525  0.16696551  1
  Al  Al9  1  0.98548212  0.99022747  0.66187606  1
  Al  Al10  1  0.24978142  0.75391119  0.66077753  1
  Al  Al11  1  0.50122720  0.49946126  0.67118195  1
  N  N12  1  0.20028890  0.69215425  0.32881638  1
  N  N13  1  0.44105798  0.44488448  0.33900544  1
  N  N14  1  0.32639711  0.57661455  0.82786715  1
  N  N15  1  0.69403186  0.20535149  0.33214013  1
  N  N16  1  0.56786747  0.31959734  0.83671243  1
  N  N17  1  0.93392907  0.93104751  0.32920503  1
  N  N18  1  0.80302311  0.05249822  0.83179259  1
  N  N19  1  0.06956141  0.81749141  0.82938192  1
  N  N20  1  0.83737275  0.56575341  0.16197356  1
  N  N21  1  0.06328348  0.30902811  0.16359091  1
  N  N22  1  0.94691059  0.43733668  0.66739074  1
  N  N23  1  0.31013411  0.06875347  0.16966345  1
  N  N24  1  0.18710056  0.19168741  0.66793347  1
  N  N25  1  0.57664800  0.84910103  0.18385587  1
  N  N26  1  0.43786261  0.95203239  0.66693948  1
  N  N27  1  0.70261982  0.68936675  0.66295911  1
  Cr  Cr28  1  0.71476540  0.71071708  0.31985442  1
  Cr  Cr29  1  0.59237934  0.83355589  0.84058403  1
  Cr  Cr30  1  0.63124976  0.40209589  0.16751082  1
  Cr  Cr31  1  0.41139291  0.64423577  0.16485340  1
