# generated using pymatgen
data_MnAl3N4
_symmetry_space_group_name_H-M   'P 1'
_cell_length_a   7.99306759
_cell_length_b   7.98826436
_cell_length_c   5.41328997
_cell_angle_alpha   89.78745469
_cell_angle_beta   90.24607660
_cell_angle_gamma   103.14082560
_symmetry_Int_Tables_number   1
_chemical_formula_structural   MnAl3N4
_chemical_formula_sum   'Mn4 Al12 N16'
_cell_volume   336.58720440
_cell_formula_units_Z   4
loop_
 _symmetry_equiv_pos_site_id
 _symmetry_equiv_pos_as_xyz
  1  'x, y, z'
loop_
 _atom_site_type_symbol
 _atom_site_label
 _atom_site_symmetry_multiplicity
 _atom_site_fract_x
 _atom_site_fract_y
 _atom_site_fract_z
 _atom_site_occupancy
  Al  Al0  1  0.01044617  0.49562575  0.33583686  1
  Al  Al1  1  0.24472115  0.24590965  0.33396116  1
  Al  Al2  1  0.12290991  0.37145130  0.83907431  1
  Al  Al3  1  0.49748117  0.01243534  0.33799307  1
  Al  Al4  1  0.37356550  0.12535630  0.84110141  1
  Al  Al5  1  0.88147335  0.62642209  0.82261752  1
  Al  Al6  1  0.86581156  0.11596601  0.16743189  1
  Al  Al7  1  0.74758751  0.24937552  0.66717816  1
  Al  Al8  1  0.11981216  0.86873144  0.16801465  1
  Al  Al9  1  0.99316277  0.99358701  0.65989811  1
  Al  Al10  1  0.25204664  0.75027239  0.66516459  1
  Al  Al11  1  0.49883904  0.50163104  0.68266200  1
  N  N12  1  0.19861794  0.68834097  0.33074161  1
  N  N13  1  0.44041590  0.44523002  0.34387359  1
  N  N14  1  0.31344329  0.56564907  0.83579041  1
  N  N15  1  0.68866799  0.19842803  0.33056969  1
  N  N16  1  0.56740721  0.31784461  0.83989147  1
  N  N17  1  0.93318209  0.93094881  0.33024596  1
  N  N18  1  0.81263336  0.06301968  0.83013661  1
  N  N19  1  0.06831983  0.81578432  0.83001512  1
  N  N20  1  0.82940419  0.56607035  0.16046558  1
  N  N21  1  0.06182327  0.30850634  0.16753611  1
  N  N22  1  0.94202759  0.43910515  0.66572646  1
  N  N23  1  0.31022473  0.06471726  0.16938992  1
  N  N24  1  0.18936145  0.18973613  0.66772968  1
  N  N25  1  0.57052540  0.83589230  0.16329905  1
  N  N26  1  0.44026056  0.94497101  0.66694145  1
  N  N27  1  0.69325064  0.69221429  0.66097527  1
  Mn  Mn28  1  0.71558649  0.71441722  0.31548294  1
  Mn  Mn29  1  0.62073816  0.86156617  0.83290281  1
  Mn  Mn30  1  0.62727159  0.40510612  0.17490643  1
  Mn  Mn31  1  0.40898140  0.63568825  0.16244610  1
