# generated using pymatgen
data_AlCrN2
_symmetry_space_group_name_H-M   'P 1'
_cell_length_a   7.85233805
_cell_length_b   7.73042944
_cell_length_c   7.84897044
_cell_angle_alpha   129.11841629
_cell_angle_beta   117.04422031
_cell_angle_gamma   85.30992736
_symmetry_Int_Tables_number   1
_chemical_formula_structural   AlCrN2
_chemical_formula_sum   'Al8 Cr8 N16'
_cell_volume   314.39328946
_cell_formula_units_Z   8
loop_
 _symmetry_equiv_pos_site_id
 _symmetry_equiv_pos_as_xyz
  1  'x, y, z'
loop_
 _atom_site_type_symbol
 _atom_site_label
 _atom_site_symmetry_multiplicity
 _atom_site_fract_x
 _atom_site_fract_y
 _atom_site_fract_z
 _atom_site_occupancy
  Al  Al0  1  0.70514239  0.66882923  0.53311989  1
  Al  Al1  1  0.19283294  0.16258542  0.52333636  1
  Al  Al2  1  0.94196041  0.16104308  0.76768981  1
  Al  Al3  1  0.45287873  0.17498019  0.29470340  1
  Al  Al4  1  0.11551109  0.83487516  0.78292911  1
  Al  Al5  1  0.87895308  0.83672379  0.03154006  1
  Al  Al6  1  0.11051281  0.32726323  0.27547366  1
  Al  Al7  1  0.86570494  0.33368373  0.52982815  1
  N  N8  1  0.45669500  0.68702985  0.31541037  1
  N  N9  1  0.94478857  0.16640941  0.28075956  1
  N  N10  1  0.17901091  0.65485304  0.52460636  1
  N  N11  1  0.95221653  0.66757657  0.78167893  1
  N  N12  1  0.69578588  0.16769318  0.53129540  1
  N  N13  1  0.42718892  0.16969039  0.77413522  1
  N  N14  1  0.69560755  0.66831677  0.01163238  1
  N  N15  1  0.19376620  0.16618481  0.03098792  1
  N  N16  1  0.85921345  0.83252866  0.52358616  1
  N  N17  1  0.36384192  0.33177595  0.52985606  1
  N  N18  1  0.63094645  0.84236257  0.78361610  1
  N  N19  1  0.36829339  0.83819714  0.03070540  1
  N  N20  1  0.11112123  0.32279109  0.76884737  1
  N  N21  1  0.86169561  0.31423416  0.01450573  1
  N  N22  1  0.11395403  0.82204291  0.27634028  1
  N  N23  1  0.61176799  0.34134385  0.28965443  1
  Cr  Cr24  1  0.45000530  0.68777813  0.78128253  1
  Cr  Cr25  1  0.23762762  0.65845479  0.05205464  1
  Cr  Cr26  1  0.66233941  0.17348458  0.00757561  1
  Cr  Cr27  1  0.91222995  0.64730388  0.24620456  1
  Cr  Cr28  1  0.62138717  0.34330358  0.81340915  1
  Cr  Cr29  1  0.60056135  0.80174036  0.24399090  1
  Cr  Cr30  1  0.37064260  0.35674445  0.03989620  1
  Cr  Cr31  1  0.37581656  0.83817601  0.56934829  1
