# generated using pymatgen
data_LiAlN2
_symmetry_space_group_name_H-M   'P 1'
_cell_length_a   9.10465401
_cell_length_b   9.12161470
_cell_length_c   9.12161470
_cell_angle_alpha   143.04701110
_cell_angle_beta   143.20298905
_cell_angle_gamma   53.16465429
_symmetry_Int_Tables_number   1
_chemical_formula_structural   LiAlN2
_chemical_formula_sum   'Li8 Al8 N16'
_cell_volume   271.05669955
_cell_formula_units_Z   8
loop_
 _symmetry_equiv_pos_site_id
 _symmetry_equiv_pos_as_xyz
  1  'x, y, z'
loop_
 _atom_site_type_symbol
 _atom_site_label
 _atom_site_symmetry_multiplicity
 _atom_site_fract_x
 _atom_site_fract_y
 _atom_site_fract_z
 _atom_site_occupancy
  Al  Al0  1  0.24689490  0.24747925  -0.00058436  1
  Al  Al1  1  0.50329995  0.49524821  0.00805174  1
  Al  Al2  1  0.00537594  0.50762278  0.49775315  1
  Al  Al3  1  0.24689490  0.74747925  0.49941564  1
  Al  Al4  1  0.11264403  0.62118884  0.99145518  1
  Al  Al5  1  0.50329995  -0.00475179  0.50805174  1
  Al  Al6  1  0.00537594  0.00762278  0.99775315  1
  Al  Al7  1  0.11264403  0.12118884  0.49145518  1
  Li  Li8  1  0.73413070  0.24343717  0.49069352  1
  Li  Li9  1  0.38269283  0.37487896  0.50781387  1
  Li  Li10  1  0.87655386  0.38398074  0.99257312  1
  Li  Li11  1  0.63258807  0.62223212  0.51035595  1
  Li  Li12  1  0.73413070  0.74343717  0.99069352  1
  Li  Li13  1  0.38269283  0.87487896  0.00781387  1
  Li  Li14  1  0.87655386  0.88398074  0.49257312  1
  Li  Li15  1  0.63258807  0.12223212  0.01035595  1
  N  N16  1  0.90662490  0.38653494  0.52008996  1
  N  N17  1  0.36084137  0.37484744  0.98599393  1
  N  N18  1  0.02114338  0.50477148  0.01637190  1
  N  N19  1  0.47004373  0.49815633  0.47188740  1
  N  N20  1  0.13080500  0.62697451  0.50383049  1
  N  N21  1  0.61377785  0.61218455  0.00159330  1
  N  N22  1  0.24920135  0.74801456  0.00118678  1
  N  N23  1  0.90662490  0.88653494  0.02008996  1
  N  N24  1  0.75338216  0.75244813  0.50093402  1
  N  N25  1  0.36084137  0.87484744  0.48599393  1
  N  N26  1  0.02114338  0.00477148  0.51637190  1
  N  N27  1  0.47004373  0.99815633  0.97188740  1
  N  N28  1  0.13080500  0.12697451  0.00383049  1
  N  N29  1  0.61377785  0.11218455  0.50159330  1
  N  N30  1  0.24920135  0.24801456  0.50118678  1
  N  N31  1  0.75338216  0.25244813  0.00093402  1
