# generated using pymatgen
data_Li3Al5N8
_symmetry_space_group_name_H-M   'P 1'
_cell_length_a   8.65781807
_cell_length_b   2.89016703
_cell_length_c   11.77920250
_cell_angle_alpha   90.00000000
_cell_angle_beta   110.35961475
_cell_angle_gamma   90.00000000
_symmetry_Int_Tables_number   1
_chemical_formula_structural   Li3Al5N8
_chemical_formula_sum   'Li6 Al10 N16'
_cell_volume   276.33206229
_cell_formula_units_Z   2
loop_
 _symmetry_equiv_pos_site_id
 _symmetry_equiv_pos_as_xyz
  1  'x, y, z'
loop_
 _atom_site_type_symbol
 _atom_site_label
 _atom_site_symmetry_multiplicity
 _atom_site_fract_x
 _atom_site_fract_y
 _atom_site_fract_z
 _atom_site_occupancy
  Al  Al0  1  0.25413850  0.50000000  0.93852319  1
  Al  Al1  1  0.28720544  0.50000000  0.47822216  1
  Al  Al2  1  0.24388591  0.50000000  0.69145013  1
  Al  Al3  1  0.71835518  0.50000000  0.08517795  1
  Al  Al4  1  0.98818125  0.00000000  0.98376133  1
  Al  Al5  1  0.72044476  0.50000000  0.31558618  1
  Al  Al6  1  0.75654461  0.50000000  0.55698404  1
  Al  Al7  1  0.99482282  0.00000000  0.74730860  1
  Al  Al8  1  0.49983918  0.00000000  0.87647422  1
  Al  Al9  1  0.52622572  0.00000000  0.64416602  1
  Li  Li10  1  0.25055079  0.50000000  0.17433320  1
  Li  Li11  1  -0.02397306  0.00000000  0.21903829  1
  Li  Li12  1  0.00686362  0.00000000  0.51936412  1
  Li  Li13  1  0.75305976  0.50000000  0.81083494  1
  Li  Li14  1  0.47371515  0.00000000  0.12184025  1
  Li  Li15  1  0.49701595  0.00000000  0.38664830  1
  N  N16  1  0.94091574  0.50000000  0.08407830  1
  N  N17  1  0.13327167  0.50000000  0.31896279  1
  N  N18  1  0.00269129  0.50000000  0.63416897  1
  N  N19  1  0.00359205  0.50000000  0.86997935  1
  N  N20  1  0.48882836  0.50000000  0.25525773  1
  N  N21  1  0.74065457  0.00000000  0.20195385  1
  N  N22  1  0.51342207  0.50000000  0.52051962  1
  N  N23  1  0.76136435  0.00000000  0.43772425  1
  N  N24  1  0.50016238  0.50000000  0.75661014  1
  N  N25  1  0.75794465  0.00000000  0.68190445  1
  N  N26  1  0.49337043  0.50000000  0.98944820  1
  N  N27  1  0.75099806  0.00000000  0.95479001  1
  N  N28  1  0.22453604  0.00000000  0.04336368  1
  N  N29  1  0.23342918  0.00000000  0.31867588  1
  N  N30  1  0.25874928  0.00000000  0.57200936  1
  N  N31  1  0.24919430  0.00000000  0.81084047  1
