# generated using pymatgen
data_LiAl7N8
_symmetry_space_group_name_H-M   'P 1'
_cell_length_a   4.97673190
_cell_length_b   7.60263917
_cell_length_c   7.65636379
_cell_angle_alpha   81.90002863
_cell_angle_beta   84.05528857
_cell_angle_gamma   71.41986899
_symmetry_Int_Tables_number   1
_chemical_formula_structural   LiAl7N8
_chemical_formula_sum   'Li2 Al14 N16'
_cell_volume   271.31833322
_cell_formula_units_Z   2
loop_
 _symmetry_equiv_pos_site_id
 _symmetry_equiv_pos_as_xyz
  1  'x, y, z'
loop_
 _atom_site_type_symbol
 _atom_site_label
 _atom_site_symmetry_multiplicity
 _atom_site_fract_x
 _atom_site_fract_y
 _atom_site_fract_z
 _atom_site_occupancy
  Al  Al0  1  0.99070609  0.87527914  0.37737969  1
  Al  Al1  1  0.00552902  0.13061770  0.61798507  1
  Al  Al2  1  0.50929391  0.81222086  0.56012031  1
  Al  Al3  1  0.00583161  0.74402317  0.74590105  1
  Al  Al4  1  0.50085401  0.43386369  0.67902899  1
  Al  Al5  1  0.99822030  0.37773693  0.87164914  1
  Al  Al6  1  0.50790263  0.06025988  0.80605495  1
  Al  Al7  1  0.00263554  0.00043552  0.99787400  1
  Al  Al8  1  0.49736446  0.68706448  0.93962600  1
  Al  Al9  1  0.99209737  0.62724012  0.13144505  1
  Al  Al10  1  0.50177970  0.30976307  0.06585086  1
  Al  Al11  1  0.99914599  0.25363631  0.25847101  1
  Al  Al12  1  0.49416839  0.94347683  0.19159895  1
  Al  Al13  1  0.49447098  0.55688230  0.31951493  1
  Li  Li14  1  0.01110669  0.50026637  0.50026976  1
  Li  Li15  1  0.48889331  0.18723363  0.43723024  1
  N  N16  1  0.73766926  0.72843604  0.33713462  1
  N  N17  1  0.75000000  0.34375000  0.46875000  1
  N  N18  1  0.23819871  0.02727947  0.40495458  1
  N  N19  1  0.76233074  0.95906396  0.60036538  1
  N  N20  1  0.26180129  0.66022053  0.53254542  1
  N  N21  1  0.73941466  0.59623343  0.72886177  1
  N  N22  1  0.25180641  0.27506337  0.67286819  1
  N  N23  1  0.75151283  0.21852765  0.84344045  1
  N  N24  1  0.25113055  0.90582561  0.78284924  1
  N  N25  1  0.75000000  0.84375000  0.96875000  1
  N  N26  1  0.24834737  0.53169224  0.90639325  1
  N  N27  1  0.74848717  0.46897235  0.09405955  1
  N  N28  1  0.25165263  0.15580776  0.03110675  1
  N  N29  1  0.76058534  0.09126657  0.20863823  1
  N  N30  1  0.24886945  0.78167439  0.15465076  1
  N  N31  1  0.24819359  0.41243663  0.26463181  1
