# generated using pymatgen
data_LiAl3N4
_symmetry_space_group_name_H-M   'P 1'
_cell_length_a   6.43895744
_cell_length_b   6.42766341
_cell_length_c   7.68670238
_cell_angle_alpha   75.83991602
_cell_angle_beta   65.26788456
_cell_angle_gamma   72.89446293
_symmetry_Int_Tables_number   1
_chemical_formula_structural   LiAl3N4
_chemical_formula_sum   'Li4 Al12 N16'
_cell_volume   273.44830994
_cell_formula_units_Z   4
loop_
 _symmetry_equiv_pos_site_id
 _symmetry_equiv_pos_as_xyz
  1  'x, y, z'
loop_
 _atom_site_type_symbol
 _atom_site_label
 _atom_site_symmetry_multiplicity
 _atom_site_fract_x
 _atom_site_fract_y
 _atom_site_fract_z
 _atom_site_occupancy
  Al  Al0  1  0.07023090  0.43158578  0.82202350  1
  Al  Al1  1  0.49983137  0.50692724  0.48932509  1
  Al  Al2  1  0.66918522  0.79962364  0.94544706  1
  Al  Al3  1  0.01326701  0.99345195  0.00354887  1
  Al  Al4  1  0.81408137  0.68944890  0.55760288  1
  Al  Al5  1  0.12408023  0.87000892  0.63077492  1
  Al  Al6  1  0.44084195  0.05516605  0.68689926  1
  Al  Al7  1  0.93813333  0.56617855  0.18192140  1
  Al  Al8  1  0.55280887  0.95499564  0.30023366  1
  Al  Al9  1  0.73931564  0.25322777  0.76318276  1
  Al  Al10  1  0.88188246  0.12724855  0.36907733  1
  Al  Al11  1  0.18841974  0.31848130  0.44037563  1
  Li  Li12  1  0.37695963  0.60430992  0.88481911  1
  Li  Li13  1  0.32864178  0.18284587  0.06044213  1
  Li  Li14  1  0.60375183  0.38298025  0.12400634  1
  Li  Li15  1  0.25480956  0.76277612  0.24452113  1
  N  N16  1  0.83934186  0.40696172  0.47211280  1
  N  N17  1  0.15201126  0.58953556  0.54168855  1
  N  N18  1  0.25108799  0.46159684  0.17615827  1
  N  N19  1  0.47048877  0.78766810  0.58106303  1
  N  N20  1  0.78483675  0.96836753  0.65262415  1
  N  N21  1  0.09277264  0.15627748  0.72051653  1
  N  N22  1  0.60319586  0.66303289  0.22086419  1
  N  N23  1  0.89632709  0.84791697  0.28180602  1
  N  N24  1  0.21136497  0.04110988  0.35925834  1
  N  N25  1  0.41488818  0.33744166  0.76529310  1
  N  N26  1  0.73722640  0.53294238  0.83050673  1
  N  N27  1  0.02140415  0.72249271  0.90735059  1
  N  N28  1  0.34915428  0.91017036  0.95341335  1
  N  N29  1  0.53037909  0.21568411  0.41429488  1
  N  N30  1  0.67442632  0.07940234  0.02393347  1
  N  N31  1  0.97485348  0.28014303  0.09491494  1
