# generated using pymatgen
data_CrFeCoReNi
_symmetry_space_group_name_H-M   'P 1'
_cell_length_a   5.63748106
_cell_length_b   6.70065933
_cell_length_c   6.75316584
_cell_angle_alpha   69.80976834
_cell_angle_beta   80.21613887
_cell_angle_gamma   83.50118592
_symmetry_Int_Tables_number   1
_chemical_formula_structural   CrFeCoReNi
_chemical_formula_sum   'Cr4 Fe4 Co4 Re4 Ni4'
_cell_volume   235.53165892
_cell_formula_units_Z   4
loop_
 _symmetry_equiv_pos_site_id
 _symmetry_equiv_pos_as_xyz
  1  'x, y, z'
loop_
 _atom_site_type_symbol
 _atom_site_label
 _atom_site_symmetry_multiplicity
 _atom_site_fract_x
 _atom_site_fract_y
 _atom_site_fract_z
 _atom_site_occupancy
  Co  Co0  1  0.16998245  0.93583251  0.66529604  1
  Co  Co1  1  0.21295861  0.58427032  0.20664342  1
  Co  Co2  1  0.09048188  0.30440611  0.09237073  1
  Co  Co3  1  0.70171337  0.09720993  0.69922928  1
  Cr  Cr4  1  0.86002028  0.72468529  0.88836783  1
  Cr  Cr5  1  0.68102236  0.43451552  0.15466243  1
  Cr  Cr6  1  0.07629072  0.61913861  0.58503381  1
  Cr  Cr7  1  0.36690004  0.22907090  0.39542222  1
  Fe  Fe8  1  0.44356544  0.85178632  0.94646700  1
  Fe  Fe9  1  0.47744553  0.51980905  0.47858382  1
  Fe  Fe10  1  0.28292007  0.23021243  0.75597392  1
  Fe  Fe11  1  0.00436450  0.01024001  0.98318527  1
  Ni  Ni12  1  0.59543340  0.81198649  0.59385588  1
  Ni  Ni13  1  0.94533644  0.34697788  0.45239155  1
  Ni  Ni14  1  0.76617350  0.42025385  0.76442161  1
  Ni  Ni15  1  0.84449927  0.06000692  0.35449883  1
  Re  Re16  1  0.26102249  0.90373653  0.29609341  1
  Re  Re17  1  0.78632292  0.73273616  0.26865963  1
  Re  Re18  1  0.35017663  0.54995257  0.85667175  1
  Re  Re19  1  0.58337011  0.13317256  0.06217155  1
