# generated using pymatgen
data_Hf20Zr20Sc20Ti20Mo20H
_symmetry_space_group_name_H-M   'P 1'
_cell_length_a   17.03538468
_cell_length_b   17.04727280
_cell_length_c   6.94304216
_cell_angle_alpha   89.97461044
_cell_angle_beta   89.54504680
_cell_angle_gamma   90.27919352
_symmetry_Int_Tables_number   1
_chemical_formula_structural   Hf20Zr20Sc20Ti20Mo20H
_chemical_formula_sum   'Hf20 Zr20 Sc20 Ti20 Mo20 H1'
_cell_volume   2016.21926547
_cell_formula_units_Z   1
loop_
 _symmetry_equiv_pos_site_id
 _symmetry_equiv_pos_as_xyz
  1  'x, y, z'
loop_
 _atom_site_type_symbol
 _atom_site_label
 _atom_site_symmetry_multiplicity
 _atom_site_fract_x
 _atom_site_fract_y
 _atom_site_fract_z
 _atom_site_occupancy
  Ti  Ti0  1  0.01565259  0.01727404  0.02181024  1
  Ti  Ti1  1  0.00711566  0.01222742  0.47661692  1
  Ti  Ti2  1  0.11382952  0.92165989  0.24673950  1
  Ti  Ti3  1  0.28565500  0.08473799  0.72065341  1
  Ti  Ti4  1  0.27868763  0.29721727  0.22873583  1
  Ti  Ti5  1  0.18104479  0.18313153  0.50390591  1
  Ti  Ti6  1  0.49289650  0.09643986  0.27224314  1
  Ti  Ti7  1  0.51768577  0.29178154  0.25868851  1
  Ti  Ti8  1  0.39690266  0.21163939  0.44020258  1
  Ti  Ti9  1  0.39509519  0.37961923  0.45348119  1
  Ti  Ti10  1  0.38837156  0.79855529  0.45084092  1
  Ti  Ti11  1  0.70202189  0.11384607  0.21785512  1
  Ti  Ti12  1  0.69858210  0.50089188  0.24868979  1
  Ti  Ti13  1  0.62321064  0.40125354  0.53819062  1
  Ti  Ti14  1  0.72451084  0.68737184  0.76987591  1
  Ti  Ti15  1  0.71250662  0.91862727  0.79583654  1
  Ti  Ti16  1  0.89550344  0.28362514  0.25019206  1
  Ti  Ti17  1  0.88723069  0.51192688  0.77346124  1
  Ti  Ti18  1  0.79592717  0.58387249  0.51120455  1
  Ti  Ti19  1  0.89619517  0.92751721  0.21707572  1
  Mo  Mo20  1  0.09799776  0.09817451  0.26105420  1
  Mo  Mo21  1  0.09199829  0.10124957  0.73753685  1
  Mo  Mo22  1  0.99398593  0.20321078  0.51473858  1
  Mo  Mo23  1  0.19930839  0.00021579  0.00132098  1
  Mo  Mo24  1  0.19149984  0.00223651  0.49881151  1
  Mo  Mo25  1  0.21629551  0.40346142  0.96993582  1
  Mo  Mo26  1  0.30330909  0.49603382  0.75865816  1
  Mo  Mo27  1  0.29949371  0.70105747  0.26016030  1
  Mo  Mo28  1  0.29515924  0.90700451  0.25508355  1
  Mo  Mo29  1  0.38851544  0.98886480  0.46967015  1
  Mo  Mo30  1  0.48927053  0.71773515  0.70838827  1
  Mo  Mo31  1  0.71358709  0.10826307  0.79692488  1
  Mo  Mo32  1  0.60759743  0.20202821  0.98344011  1
  Mo  Mo33  1  0.70081500  0.29495272  0.77124352  1
  Mo  Mo34  1  0.71052684  0.50322997  0.77534904  1
  Mo  Mo35  1  0.79407091  0.01285781  0.00470526  1
  Mo  Mo36  1  0.80053491  0.20789180  0.99387395  1
  Mo  Mo37  1  0.89821717  0.29062028  0.75881556  1
  Mo  Mo38  1  0.88069990  0.50020750  0.24192578  1
  Mo  Mo39  1  0.79761216  0.58940978  0.00520447  1
  Hf  Hf40  1  0.00095868  0.20120512  0.98931855  1
  Hf  Hf41  1  0.10534242  0.29938703  0.25362766  1
  Hf  Hf42  1  0.98694269  0.57535209  0.48581449  1
  Hf  Hf43  1  0.99392390  0.82182374  0.47962773  1
  Hf  Hf44  1  0.18940389  0.17868575  0.99293760  1
  Hf  Hf45  1  0.22029650  0.40496602  0.52073110  1
  Hf  Hf46  1  0.21231990  0.59603379  0.50981489  1
  Hf  Hf47  1  0.20264752  0.80171546  0.03154590  1
  Hf  Hf48  1  0.20016625  0.80354002  0.46852314  1
  Hf  Hf49  1  0.50445531  0.29685747  0.70951094  1
  Hf  Hf50  1  0.48588917  0.48044398  0.71049870  1
  Hf  Hf51  1  0.39767866  0.60341461  0.49745822  1
  Hf  Hf52  1  0.49029004  0.89796968  0.71382584  1
  Hf  Hf53  1  0.59312662  0.02250675  0.97547147  1
  Hf  Hf54  1  0.69419310  0.29581787  0.24478817  1
  Hf  Hf55  1  0.89568425  0.10672897  0.24599491  1
  Hf  Hf56  1  0.79800309  0.39849965  0.51693415  1
  Hf  Hf57  1  0.90114549  0.69319523  0.74964529  1
  Hf  Hf58  1  0.80461911  0.80611498  0.99569345  1
  Hf  Hf59  1  0.90344168  0.91942522  0.77746767  1
  Sc  Sc60  1  0.10476002  0.30243761  0.74762183  1
  Sc  Sc61  1  0.11351435  0.48535350  0.24145310  1
  Sc  Sc62  1  0.98420394  0.39331433  0.50160387  1
  Sc  Sc63  1  0.09058852  0.69342963  0.28016039  1
  Sc  Sc64  1  0.29428799  0.09370744  0.27551883  1
  Sc  Sc65  1  0.30234992  0.27893424  0.73774442  1
  Sc  Sc66  1  0.30257587  0.71438831  0.73658104  1
  Sc  Sc67  1  0.29749974  0.90614753  0.73391074  1
  Sc  Sc68  1  0.39447509  0.00014335  0.00952209  1
  Sc  Sc69  1  0.47225591  0.09880175  0.70225390  1
  Sc  Sc70  1  0.40281924  0.38448045  0.00487772  1
  Sc  Sc71  1  0.40658611  0.60288524  0.98120610  1
  Sc  Sc72  1  0.50302853  0.90477171  0.25623906  1
  Sc  Sc73  1  0.61014018  0.00722380  0.52103450  1
  Sc  Sc74  1  0.61296923  0.18801167  0.52926716  1
  Sc  Sc75  1  0.60556342  0.40077397  0.97235895  1
  Sc  Sc76  1  0.60292567  0.59723525  0.53867793  1
  Sc  Sc77  1  0.60605942  0.79570187  0.96401448  1
  Sc  Sc78  1  0.90195057  0.10140119  0.75825571  1
  Sc  Sc79  1  0.89574141  0.69476487  0.26868199  1
  Zr  Zr80  1  0.98596140  0.39633671  0.00706876  1
  Zr  Zr81  1  0.10657805  0.49604632  0.76752176  1
  Zr  Zr82  1  0.99228047  0.58401680  0.02961447  1
  Zr  Zr83  1  0.09078300  0.69821472  0.74832558  1
  Zr  Zr84  1  0.00288961  0.81437156  0.03197508  1
  Zr  Zr85  1  0.10462347  0.90912046  0.75416923  1
  Zr  Zr86  1  0.30189104  0.49215731  0.22264707  1
  Zr  Zr87  1  0.21112214  0.60764902  0.00167904  1
  Zr  Zr88  1  0.40791697  0.20092711  0.02680262  1
  Zr  Zr89  1  0.51134118  0.48538563  0.27426507  1
  Zr  Zr90  1  0.51524147  0.70559492  0.27282141  1
  Zr  Zr91  1  0.40015830  0.79412398  0.02098439  1
  Zr  Zr92  1  0.59794400  0.59832553  0.97763999  1
  Zr  Zr93  1  0.70452887  0.68958357  0.24352753  1
  Zr  Zr94  1  0.69838656  0.91173632  0.22679298  1
  Zr  Zr95  1  0.61919980  0.80034762  0.53289474  1
  Zr  Zr96  1  0.79454279  0.00772468  0.50124487  1
  Zr  Zr97  1  0.79628637  0.20528821  0.52094238  1
  Zr  Zr98  1  0.80095107  0.39622879  0.00372618  1
  Zr  Zr99  1  0.80046464  0.81192049  0.52325606  1
  H  H100  1  0.04296483  0.19538786  0.26874647  1
