# generated using pymatgen
data_TaAl15N16
_symmetry_space_group_name_H-M   'P 1'
_cell_length_a   5.91878021
_cell_length_b   5.91616105
_cell_length_c   12.65253410
_cell_angle_alpha   105.55184904
_cell_angle_beta   105.57743991
_cell_angle_gamma   54.93141376
_symmetry_Int_Tables_number   1
_chemical_formula_structural   TaAl15N16
_chemical_formula_sum   'Ta1 Al15 N16'
_cell_volume   345.63962881
_cell_formula_units_Z   1
loop_
 _symmetry_equiv_pos_site_id
 _symmetry_equiv_pos_as_xyz
  1  'x, y, z'
loop_
 _atom_site_type_symbol
 _atom_site_label
 _atom_site_symmetry_multiplicity
 _atom_site_fract_x
 _atom_site_fract_y
 _atom_site_fract_z
 _atom_site_occupancy
  Al  Al0  1  0.16285267  0.82848589  0.62385519  1
  Al  Al1  1  0.17832664  0.81360267  0.37395306  1
  Al  Al2  1  0.16736199  0.83757172  0.12462885  1
  Al  Al3  1  0.16489413  0.83466243  0.87506000  1
  Al  Al4  1  0.66598411  0.33302069  0.75156575  1
  Al  Al5  1  0.65275212  0.32979914  0.50372170  1
  Al  Al6  1  0.66254783  0.33852930  0.24396694  1
  Al  Al7  1  0.66542624  0.33333531  0.99839265  1
  Al  Al8  1  0.08356921  0.41580958  0.69390078  1
  Al  Al9  1  0.08386067  0.42011686  0.18072296  1
  Al  Al10  1  0.08329117  0.41806286  0.93761794  1
  Al  Al11  1  0.58107399  0.91528978  0.81299848  1
  Al  Al12  1  0.58453278  0.91563288  0.56893031  1
  Al  Al13  1  0.59273612  0.92544413  0.30962194  1
  Al  Al14  1  0.58385939  0.91577902  0.06066052  1
  N  N15  1  0.35074749  0.02509471  0.67431025  1
  N  N16  1  0.39569996  0.98487263  0.42211538  1
  N  N17  1  0.35759919  0.03110210  0.17174311  1
  N  N18  1  0.35544052  0.02661568  0.92275762  1
  N  N19  1  0.85549811  0.52529124  0.80088781  1
  N  N20  1  0.83646481  0.52847555  0.56215306  1
  N  N21  1  0.84470691  0.53792853  0.28226195  1
  N  N22  1  0.85517520  0.52519714  0.04398815  1
  N  N23  1  0.27420611  0.60663710  0.73644861  1
  N  N24  1  0.26240422  0.59967591  0.48368834  1
  N  N25  1  0.27351186  0.60834323  0.23187716  1
  N  N26  1  0.27482499  0.60965020  0.98539474  1
  N  N27  1  0.77287008  0.10599889  0.86007285  1
  N  N28  1  0.77279258  0.10352431  0.61328041  1
  N  N29  1  0.78618709  0.12092793  0.36194915  1
  N  N30  1  0.77514523  0.10614893  0.10768746  1
  Ta  Ta31  1  0.04365660  0.37937366  0.42978687  1
