# generated using pymatgen
data_Al3WN4
_symmetry_space_group_name_H-M   'P 1'
_cell_length_a   5.06129006
_cell_length_b   7.73983970
_cell_length_c   7.95661951
_cell_angle_alpha   106.58951528
_cell_angle_beta   91.01388386
_cell_angle_gamma   101.86386487
_symmetry_Int_Tables_number   1
_chemical_formula_structural   Al3WN4
_chemical_formula_sum   'Al12 W4 N16'
_cell_volume   291.36289725
_cell_formula_units_Z   4
loop_
 _symmetry_equiv_pos_site_id
 _symmetry_equiv_pos_as_xyz
  1  'x, y, z'
loop_
 _atom_site_type_symbol
 _atom_site_label
 _atom_site_symmetry_multiplicity
 _atom_site_fract_x
 _atom_site_fract_y
 _atom_site_fract_z
 _atom_site_occupancy
  Al  Al0  1  0.19218789  0.06194442  0.37990589  1
  Al  Al1  1  0.12982535  0.38721648  0.26446479  1
  Al  Al2  1  0.81725063  0.92779305  0.60594057  1
  Al  Al3  1  0.93462169  0.31264286  0.85114275  1
  Al  Al4  1  0.06800332  0.68452927  0.13027895  1
  Al  Al5  1  0.74925701  0.24921691  0.49655115  1
  Al  Al6  1  0.87895427  0.62760514  0.74324982  1
  Al  Al7  1  0.61833847  0.86861712  0.25559935  1
  Al  Al8  1  0.42931445  0.81043157  0.87915607  1
  Al  Al9  1  0.69138693  0.56433155  0.38222691  1
  Al  Al10  1  0.25710530  0.75281348  0.50330643  1
  Al  Al11  1  0.31520052  0.44163119  0.61766044  1
  N  N12  1  0.74387844  0.74358911  0.00449145  1
  N  N13  1  0.56391657  0.68393047  0.62071176  1
  N  N14  1  0.71263884  0.04112724  0.82277252  1
  N  N15  1  0.38287579  0.62630233  0.25849965  1
  N  N16  1  0.49915310  0.99931922  0.49815124  1
  N  N17  1  0.63344232  0.38596951  0.72185499  1
  N  N18  1  0.30350063  0.92510293  0.13744280  1
  N  N19  1  0.43320086  0.31013454  0.37269655  1
  N  N20  1  0.18008615  0.56181980  0.87240512  1
  N  N21  1  0.00777070  0.50403892  0.50156690  1
  N  N22  1  0.12706815  0.86631217  0.74597013  1
  N  N23  1  0.19738782  0.26531873  0.01398992  1
  N  N24  1  0.83329990  0.45504798  0.15934363  1
  N  N25  1  0.94138212  0.81530152  0.37919237  1
  N  N26  1  0.06703191  0.19647120  0.62061453  1
  N  N27  1  0.87318214  0.12388321  0.27110415  1
  W  W28  1  0.95688305  0.01091040  0.00773881  1
  W  W29  1  0.56492265  0.18333293  0.11433171  1
  W  W30  1  0.38730637  0.14318476  0.77564911  1
  W  W31  1  0.50962666  0.47012998  0.99198953  1
