# generated using pymatgen
data_Al5Cu3N8
_symmetry_space_group_name_H-M   'P 1'
_cell_length_a   5.04927977
_cell_length_b   6.50021862
_cell_length_c   9.20475947
_cell_angle_alpha   106.14943133
_cell_angle_beta   89.89939328
_cell_angle_gamma   104.89625354
_symmetry_Int_Tables_number   1
_chemical_formula_structural   Al5Cu3N8
_chemical_formula_sum   'Al10 Cu6 N16'
_cell_volume   279.64652991
_cell_formula_units_Z   2
loop_
 _symmetry_equiv_pos_site_id
 _symmetry_equiv_pos_as_xyz
  1  'x, y, z'
loop_
 _atom_site_type_symbol
 _atom_site_label
 _atom_site_symmetry_multiplicity
 _atom_site_fract_x
 _atom_site_fract_y
 _atom_site_fract_z
 _atom_site_occupancy
  Al  Al0  1  0.49888037  0.51022612  0.50462313  1
  Al  Al1  1  0.68987474  0.56989390  0.81959973  1
  Al  Al2  1  0.56896481  0.18833958  0.94009617  1
  Al  Al3  1  0.25235155  0.75326384  0.74864940  1
  Al  Al4  1  0.00094503  0.99295254  0.99683811  1
  Al  Al5  1  0.74668253  0.24757452  0.25240151  1
  Al  Al6  1  0.42696092  0.80908312  0.06241377  1
  Al  Al7  1  0.38939447  0.12938467  0.62577630  1
  Al  Al8  1  0.12230073  0.37282672  0.87017640  1
  Al  Al9  1  0.30506571  0.42729393  0.18055623  1
  Cu  Cu10  1  0.86617096  0.62621389  0.12879196  1
  Cu  Cu11  1  0.63098354  0.87073362  0.37350668  1
  Cu  Cu12  1  0.06212086  0.68917799  0.43486662  1
  Cu  Cu13  1  0.82059347  0.94400350  0.68951724  1
  Cu  Cu14  1  0.18766210  0.05903740  0.31159904  1
  Cu  Cu15  1  0.94052734  0.31216938  0.56236629  1
  N  N16  1  0.12303068  0.37422556  0.37574651  1
  N  N17  1  0.32755253  0.44549160  0.69057725  1
  N  N18  1  0.48735087  0.49474550  0.99634072  1
  N  N19  1  0.24050640  0.73484689  0.24338772  1
  N  N20  1  0.65481486  0.53939545  0.31070437  1
  N  N21  1  0.44797737  0.81897931  0.56916709  1
  N  N22  1  0.20012312  0.06705552  0.81435655  1
  N  N23  1  0.87727321  0.63499303  0.62751355  1
  N  N24  1  0.62247859  0.87417229  0.88095424  1
  N  N25  1  0.37063636  0.12161032  0.11907856  1
  N  N26  1  0.06586170  0.68816880  0.93185061  1
  N  N27  1  0.78951753  0.94133037  0.18042862  1
  N  N28  1  0.56708620  0.19562930  0.43939065  1
  N  N29  1  0.03011943  0.00471924  0.50262647  1
  N  N30  1  0.75099863  0.26096492  0.75465946  1
  N  N31  1  0.93519336  0.30149719  0.06143905  1
