# generated using pymatgen
data_Al5Cr3N8
_symmetry_space_group_name_H-M   'P 1'
_cell_length_a   8.68063725
_cell_length_b   2.83783867
_cell_length_c   11.54234123
_cell_angle_alpha   90.00000000
_cell_angle_beta   108.72252770
_cell_angle_gamma   90.00000000
_symmetry_Int_Tables_number   1
_chemical_formula_structural   Al5Cr3N8
_chemical_formula_sum   'Al10 Cr6 N16'
_cell_volume   269.29096725
_cell_formula_units_Z   2
loop_
 _symmetry_equiv_pos_site_id
 _symmetry_equiv_pos_as_xyz
  1  'x, y, z'
loop_
 _atom_site_type_symbol
 _atom_site_label
 _atom_site_symmetry_multiplicity
 _atom_site_fract_x
 _atom_site_fract_y
 _atom_site_fract_z
 _atom_site_occupancy
  Al  Al0  1  0.25344973  0.50000000  0.68653165  1
  Al  Al1  1  0.74289160  0.50000000  0.05636680  1
  Al  Al2  1  0.99505079  0.00000000  0.00368727  1
  Al  Al3  1  0.75531692  0.50000000  0.56153095  1
  Al  Al4  1  0.00834605  0.00000000  0.50772684  1
  Al  Al5  1  0.00161249  0.00000000  0.75103031  1
  Al  Al6  1  0.49593721  0.00000000  0.87381940  1
  Al  Al7  1  0.49296183  0.00000000  0.12509754  1
  Al  Al8  1  0.51862191  0.00000000  0.37525626  1
  Al  Al9  1  0.49950181  0.00000000  0.62249392  1
  Cr  Cr10  1  0.23847926  0.50000000  0.93979128  1
  Cr  Cr11  1  0.24063863  0.50000000  0.19391650  1
  Cr  Cr12  1  0.25183530  0.50000000  0.42021943  1
  Cr  Cr13  1  0.77218267  0.50000000  0.30625656  1
  Cr  Cr14  1  0.97840231  0.00000000  0.25678987  1
  Cr  Cr15  1  0.75594080  0.50000000  0.81142585  1
  N  N16  1  0.98995768  0.50000000  0.12298197  1
  N  N17  1  0.00549056  0.50000000  0.38920015  1
  N  N18  1  0.00365578  0.50000000  0.62978560  1
  N  N19  1  0.99690844  0.50000000  0.87663163  1
  N  N20  1  0.50612952  0.50000000  0.25166892  1
  N  N21  1  0.74232706  0.00000000  0.17757729  1
  N  N22  1  0.50561869  0.50000000  0.49729196  1
  N  N23  1  0.75922041  0.00000000  0.43964948  1
  N  N24  1  0.49986310  0.50000000  0.74896547  1
  N  N25  1  0.75030129  0.00000000  0.68089246  1
  N  N26  1  0.49651609  0.50000000  0.99995280  1
  N  N27  1  0.74661708  0.00000000  0.93930538  1
  N  N28  1  0.24571764  0.00000000  0.06876970  1
  N  N29  1  0.24726046  0.00000000  0.31134410  1
  N  N30  1  0.25394572  0.00000000  0.56419752  1
  N  N31  1  0.24930111  0.00000000  0.80984515  1
