# generated using pymatgen
data_Al3CrN4
_symmetry_space_group_name_H-M   'P 1'
_cell_length_a   4.98708604
_cell_length_b   6.43128074
_cell_length_c   9.08946856
_cell_angle_alpha   105.93411849
_cell_angle_beta   90.98996868
_cell_angle_gamma   104.81579083
_symmetry_Int_Tables_number   1
_chemical_formula_structural   Al3CrN4
_chemical_formula_sum   'Al12 Cr4 N16'
_cell_volume   269.80586166
_cell_formula_units_Z   4
loop_
 _symmetry_equiv_pos_site_id
 _symmetry_equiv_pos_as_xyz
  1  'x, y, z'
loop_
 _atom_site_type_symbol
 _atom_site_label
 _atom_site_symmetry_multiplicity
 _atom_site_fract_x
 _atom_site_fract_y
 _atom_site_fract_z
 _atom_site_occupancy
  Al  Al0  1  0.68591098  0.56327229  0.81200864  1
  Al  Al1  1  0.88589653  0.62469085  0.12485293  1
  Al  Al2  1  0.62825813  0.86833189  0.37252134  1
  Al  Al3  1  0.07224506  0.70104977  0.43828883  1
  Al  Al4  1  0.80497196  0.94135640  0.68722553  1
  Al  Al5  1  0.55856966  0.18822336  0.93679558  1
  Al  Al6  1  0.25270126  0.74566681  0.74805845  1
  Al  Al7  1  0.99992784  0.99784032  0.99841314  1
  Al  Al8  1  0.75328022  0.24433909  0.24137993  1
  Al  Al9  1  0.43660218  0.80285004  0.06381322  1
  Al  Al10  1  0.36061801  0.12977279  0.62768691  1
  Al  Al11  1  0.12490837  0.37460599  0.87758014  1
  Cr  Cr12  1  0.50761537  0.48439681  0.48722142  1
  Cr  Cr13  1  0.20807787  0.09927574  0.31540686  1
  Cr  Cr14  1  0.90083874  0.31981923  0.55469697  1
  Cr  Cr15  1  0.31807319  0.42123652  0.20975161  1
  N  N16  1  0.11474351  0.38541025  0.38440609  1
  N  N17  1  0.30963893  0.43677244  0.68994040  1
  N  N18  1  0.50228357  0.49887499  0.00289121  1
  N  N19  1  0.25612965  0.74893131  0.25043993  1
  N  N20  1  0.70776681  0.56194290  0.31047204  1
  N  N21  1  0.43537257  0.81650074  0.56172555  1
  N  N22  1  0.18363716  0.06161476  0.81303730  1
  N  N23  1  0.87199029  0.63547797  0.62792842  1
  N  N24  1  0.62275565  0.87389553  0.87470483  1
  N  N25  1  0.38134357  0.11691699  0.12029533  1
  N  N26  1  0.06258891  0.68587483  0.93733710  1
  N  N27  1  0.81793733  0.93882876  0.18723033  1
  N  N28  1  0.56096272  0.17227605  0.42932174  1
  N  N29  1  0.99461545  0.00058375  0.50060146  1
  N  N30  1  0.74198269  0.25125322  0.75205809  1
  N  N31  1  0.93775580  0.30811762  0.06190868  1
