# generated using pymatgen
data_Ti3SiN4
_symmetry_space_group_name_H-M   'P 1'
_cell_length_a   5.14643845
_cell_length_b   6.69016439
_cell_length_c   8.88041341
_cell_angle_alpha   99.01396141
_cell_angle_beta   95.32653055
_cell_angle_gamma   97.17475478
_symmetry_Int_Tables_number   1
_chemical_formula_structural   Ti3SiN4
_chemical_formula_sum   'Ti12 Si4 N16'
_cell_volume   297.63910336
_cell_formula_units_Z   4
loop_
 _symmetry_equiv_pos_site_id
 _symmetry_equiv_pos_as_xyz
  1  'x, y, z'
loop_
 _atom_site_type_symbol
 _atom_site_label
 _atom_site_symmetry_multiplicity
 _atom_site_fract_x
 _atom_site_fract_y
 _atom_site_fract_z
 _atom_site_occupancy
  N  N0  1  0.12607389  0.21890487  0.52993253  1
  N  N1  1  0.84378598  0.76842666  0.46015741  1
  N  N2  1  0.17077910  0.47656138  0.26501463  1
  N  N3  1  0.84712024  0.01698251  0.21187779  1
  N  N4  1  0.90341681  0.32884403  0.97943705  1
  N  N5  1  0.62154904  0.09484589  0.65741203  1
  N  N6  1  0.38026749  0.65780213  0.56977736  1
  N  N7  1  0.61158045  0.37277028  0.40083720  1
  N  N8  1  0.39506322  0.87871355  0.32744767  1
  N  N9  1  0.39336688  0.12044374  0.09803206  1
  N  N10  1  0.15307394  0.72011527  0.03639720  1
  N  N11  1  0.38754489  0.41278266  0.87452804  1
  N  N12  1  0.12417865  0.97177767  0.78200713  1
  N  N13  1  0.85581231  0.53364907  0.74348735  1
  N  N14  1  0.60704481  0.59672992  0.14275695  1
  N  N15  1  0.62748892  0.81744586  0.92534836  1
  Si  Si16  1  0.49508389  0.62520166  0.37760155  1
  Si  Si17  1  0.50467922  0.87004731  0.12510405  1
  Si  Si18  1  0.72273800  0.55210627  0.93395055  1
  Si  Si19  1  0.23838880  0.47363973  0.06030049  1
  Ti  Ti20  1  0.75335069  0.81468255  0.68608994  1
  Ti  Ti21  1  0.49132384  0.37377070  0.62012906  1
  Ti  Ti22  1  0.75481549  0.06871932  0.44163997  1
  Ti  Ti23  1  0.24307489  0.69233903  0.79970397  1
  Ti  Ti24  1  0.99676022  0.24387919  0.74442030  1
  Ti  Ti25  1  0.24590796  0.94529723  0.56775850  1
  Ti  Ti26  1  0.99901545  0.49584612  0.50570733  1
  Ti  Ti27  1  0.00059213  0.76482719  0.25655784  1
  Ti  Ti28  1  0.75780419  0.29865405  0.19244725  1
  Ti  Ti29  1  0.00858944  0.00040682  -0.00010323  1
  Ti  Ti30  1  0.49601289  0.11186790  0.87415047  1
  Ti  Ti31  1  0.24371623  0.18191942  0.31009118  1
