# generated using pymatgen
data_AlCrN2
_symmetry_space_group_name_H-M   'P 1'
_cell_length_a   10.02865014
_cell_length_b   10.00673172
_cell_length_c   5.46899029
_cell_angle_alpha   91.72665294
_cell_angle_beta   88.44860412
_cell_angle_gamma   142.92489702
_symmetry_Int_Tables_number   1
_chemical_formula_structural   AlCrN2
_chemical_formula_sum   'Al8 Cr8 N16'
_cell_volume   330.71705665
_cell_formula_units_Z   8
loop_
 _symmetry_equiv_pos_site_id
 _symmetry_equiv_pos_as_xyz
  1  'x, y, z'
loop_
 _atom_site_type_symbol
 _atom_site_label
 _atom_site_symmetry_multiplicity
 _atom_site_fract_x
 _atom_site_fract_y
 _atom_site_fract_z
 _atom_site_occupancy
  Al  Al0  1  0.26034954  0.74741655  0.33535581  1
  Al  Al1  1  0.49817519  0.99151770  0.82232350  1
  Al  Al2  1  0.99401147  0.99493598  0.35277872  1
  Al  Al3  1  0.01153388  0.50526731  0.81733401  1
  Al  Al4  1  0.87282177  0.12741379  0.65798458  1
  Al  Al5  1  0.87739591  0.61809582  0.16818702  1
  Al  Al6  1  0.63414970  0.37263127  0.65931959  1
  Al  Al7  1  0.12272587  0.88011347  0.67786259  1
  Cr  Cr8  1  0.48259952  0.50494233  0.32804734  1
  Cr  Cr9  1  0.26339433  0.27745618  0.85808839  1
  Cr  Cr10  1  0.72191521  0.73407939  0.85435070  1
  Cr  Cr11  1  0.78058607  0.22170753  0.30322926  1
  Cr  Cr12  1  0.62512518  0.84976133  0.15973716  1
  Cr  Cr13  1  0.38650142  0.13423379  0.17667293  1
  Cr  Cr14  1  0.14030419  0.37330002  0.15974314  1
  Cr  Cr15  1  0.39810929  0.60300722  0.68174764  1
  N  N16  1  0.15746312  0.85025152  0.33854938  1
  N  N17  1  0.40434773  0.09914855  0.83302660  1
  N  N18  1  0.38598956  0.60694065  0.34514546  1
  N  N19  1  0.89914029  0.09993672  0.32992799  1
  N  N20  1  0.13155938  0.34020822  0.82354949  1
  N  N21  1  0.66346664  0.86967608  0.82344847  1
  N  N22  1  0.66639404  0.33638528  0.32346084  1
  N  N23  1  0.90732029  0.60104299  0.82993467  1
  N  N24  1  0.52514824  0.95926306  0.14904385  1
  N  N25  1  0.77463713  0.22471570  0.65985095  1
  N  N26  1  0.77717847  0.71931651  0.18417669  1
  N  N27  1  0.27039009  0.21010070  0.18407923  1
  N  N28  1  0.52539099  0.47058986  0.66325683  1
  N  N29  1  0.01869618  0.97686387  0.68987307  1
  N  N30  1  0.03921785  0.48005796  0.14877920  1
  N  N31  1  0.28396144  0.71962265  0.66113487  1
