# generated using pymatgen
data_AlCoN2
_symmetry_space_group_name_H-M   'P 1'
_cell_length_a   18.78761361
_cell_length_b   18.78761362
_cell_length_c   4.98782049
_cell_angle_alpha   92.62849132
_cell_angle_beta   92.62849131
_cell_angle_gamma   8.72068834
_symmetry_Int_Tables_number   1
_chemical_formula_structural   AlCoN2
_chemical_formula_sum   'Al8 Co8 N16'
_cell_volume   266.65162386
_cell_formula_units_Z   8
loop_
 _symmetry_equiv_pos_site_id
 _symmetry_equiv_pos_as_xyz
  1  'x, y, z'
loop_
 _atom_site_type_symbol
 _atom_site_label
 _atom_site_symmetry_multiplicity
 _atom_site_fract_x
 _atom_site_fract_y
 _atom_site_fract_z
 _atom_site_occupancy
  Al  Al0  1  0.06402215  0.06402215  0.68940732  1
  Al  Al1  1  0.93700943  0.93700943  0.27576763  1
  Al  Al2  1  0.62636462  0.62636462  0.88029200  1
  Al  Al3  1  0.50102557  0.50102557  0.49007089  1
  Al  Al4  1  0.31102850  0.31102850  0.42711638  1
  Al  Al5  1  0.24933178  0.24933178  0.74752442  1
  Al  Al6  1  0.18843618  0.18843618  0.06967772  1
  Al  Al7  1  0.12556631  0.12556631  0.38332143  1
  Co  Co8  1  0.00053534  0.00053534  0.98990924  1
  Co  Co9  1  0.88074261  0.88074261  0.60120547  1
  Co  Co10  1  0.81594405  0.81594405  0.91804644  1
  Co  Co11  1  0.75168952  0.75168952  0.23876589  1
  Co  Co12  1  0.68783185  0.68783185  0.56248677  1
  Co  Co13  1  0.56252901  0.56252901  0.18668333  1
  Co  Co14  1  0.43838857  0.43838857  0.78262501  1
  Co  Co15  1  0.37041696  0.37041696  0.08312130  1
  N  N16  1  0.96953111  0.96953111  0.67869090  1
  N  N17  1  0.90220964  0.90220964  0.98151292  1
  N  N18  1  0.84378722  0.84378722  0.29813850  1
  N  N19  1  0.78056694  0.78056694  0.59470041  1
  N  N20  1  0.71836139  0.71836139  0.91259037  1
  N  N21  1  0.65564425  0.65564425  0.22519295  1
  N  N22  1  0.59384067  0.59384067  0.54040053  1
  N  N23  1  0.53054039  0.53054039  0.86243353  1
  N  N24  1  0.46837782  0.46837782  0.17540880  1
  N  N25  1  0.40886149  0.40886149  0.47717533  1
  N  N26  1  0.34113575  0.34113575  0.77984028  1
  N  N27  1  0.27951349  0.27951349  0.09796626  1
  N  N28  1  0.21685319  0.21685319  0.41716082  1
  N  N29  1  0.15547316  0.15547316  0.73018096  1
  N  N30  1  0.09281627  0.09281627  0.03732151  1
  N  N31  1  0.03162478  0.03162478  0.36526468  1
