# generated using pymatgen
data_AlCo3N4
_symmetry_space_group_name_H-M   'P 1'
_cell_length_a   7.53664062
_cell_length_b   7.55253460
_cell_length_c   5.20426135
_cell_angle_alpha   105.48005233
_cell_angle_beta   105.93238830
_cell_angle_gamma   95.62635123
_symmetry_Int_Tables_number   1
_chemical_formula_structural   AlCo3N4
_chemical_formula_sum   'Al4 Co12 N16'
_cell_volume   269.78655697
_cell_formula_units_Z   4
loop_
 _symmetry_equiv_pos_site_id
 _symmetry_equiv_pos_as_xyz
  1  'x, y, z'
loop_
 _atom_site_type_symbol
 _atom_site_label
 _atom_site_symmetry_multiplicity
 _atom_site_fract_x
 _atom_site_fract_y
 _atom_site_fract_z
 _atom_site_occupancy
  Al  Al0  1  0.00051073  0.50631287  0.51209881  1
  Al  Al1  1  0.50735471  0.51671228  0.98692795  1
  Al  Al2  1  0.88553574  0.63150409  0.98498847  1
  Al  Al3  1  0.76556397  0.26713715  0.97130169  1
  Co  Co4  1  0.74943215  0.77668313  0.51207231  1
  Co  Co5  1  0.50566316  0.00129691  0.46695648  1
  Co  Co6  1  0.37235363  0.61700060  0.47993667  1
  Co  Co7  1  0.12288656  0.88796390  0.49407155  1
  Co  Co8  1  0.87298316  0.10527848  0.45031536  1
  Co  Co9  1  0.61095676  0.35635999  0.45203134  1
  Co  Co10  1  0.25781798  0.26605267  0.48642780  1
  Co  Co11  1  0.62846749  0.89762721  0.98538055  1
  Co  Co12  1  0.26184903  0.78730648  0.02571160  1
  Co  Co13  1  0.01315467  0.01340547  0.98704019  1
  Co  Co14  1  0.37776976  0.09266053  0.92488504  1
  Co  Co15  1  0.14460427  0.35651202  0.98121868  1
  N  N16  1  0.36590743  0.37635801  0.27517163  1
  N  N17  1  0.11386208  0.62308964  0.27280146  1
  N  N18  1  0.86549726  0.85448124  0.27155887  1
  N  N19  1  0.74007220  0.49398855  0.25630554  1
  N  N20  1  0.48694329  0.73523649  0.27689665  1
  N  N21  1  0.23977318  0.00473421  0.29338016  1
  N  N22  1  0.99351439  0.24487959  0.26048132  1
  N  N23  1  0.61876661  0.11543802  0.25944328  1
  N  N24  1  0.88164201  0.37445504  0.74579437  1
  N  N25  1  0.24659233  0.49732807  0.77419837  1
  N  N26  1  0.00122320  0.75200787  0.76732547  1
  N  N27  1  0.62651864  0.63072834  0.76869476  1
  N  N28  1  0.37237511  0.84834724  0.77464115  1
  N  N29  1  0.12664874  0.11449295  0.77416665  1
  N  N30  1  0.74498046  0.00531751  0.77396186  1
  N  N31  1  0.49877933  0.24930343  0.75381396  1
