# generated using pymatgen
data_Nb4AlN3
_symmetry_space_group_name_H-M   'P 1'
_cell_length_a   6.25970437
_cell_length_b   8.33970272
_cell_length_c   8.29736663
_cell_angle_alpha   90.84866079
_cell_angle_beta   101.52006133
_cell_angle_gamma   94.17436526
_symmetry_Int_Tables_number   1
_chemical_formula_structural   Nb4AlN3
_chemical_formula_sum   'Nb16 Al4 N12'
_cell_volume   423.11344716
_cell_formula_units_Z   4
loop_
 _symmetry_equiv_pos_site_id
 _symmetry_equiv_pos_as_xyz
  1  'x, y, z'
loop_
 _atom_site_type_symbol
 _atom_site_label
 _atom_site_symmetry_multiplicity
 _atom_site_fract_x
 _atom_site_fract_y
 _atom_site_fract_z
 _atom_site_occupancy
  Al  Al0  1  0.71501774  0.05911672  0.43820084  1
  Al  Al1  1  0.20802410  0.85534502  0.21233200  1
  Al  Al2  1  0.10779437  0.10042140  0.36890038  1
  Al  Al3  1  0.01004086  0.02038714  0.97977235  1
  Nb  Nb4  1  0.99592754  0.28166198  0.60358532  1
  Nb  Nb5  1  0.18405401  0.43495688  0.31357589  1
  Nb  Nb6  1  0.70836797  0.91519095  0.14842391  1
  Nb  Nb7  1  0.09167402  0.35212761  0.94361061  1
  Nb  Nb8  1  0.49573311  0.27080879  0.57520608  1
  Nb  Nb9  1  0.99474082  0.76456739  0.46629997  1
  Nb  Nb10  1  0.71850539  0.43845649  0.30685834  1
  Nb  Nb11  1  0.40286205  0.14632031  0.17456169  1
  Nb  Nb12  1  0.90498234  0.64064852  0.05055397  1
  Nb  Nb13  1  0.60396059  0.31795930  0.95088484  1
  Nb  Nb14  1  0.26949081  0.03705611  0.76135430  1
  Nb  Nb15  1  0.80129403  0.56605649  0.68650707  1
  Nb  Nb16  1  0.51233625  0.74592397  0.44572252  1
  Nb  Nb17  1  0.40533438  0.62949618  0.06097515  1
  Nb  Nb18  1  0.62102782  0.84624058  0.79736467  1
  Nb  Nb19  1  0.28997555  0.56064660  0.70148333  1
  N  N20  1  0.30701375  0.81681105  0.63553035  1
  N  N21  1  0.55553129  0.06859569  0.95961383  1
  N  N22  1  0.81644587  0.82830981  0.63267524  1
  N  N23  1  0.49154181  0.50641075  0.49749285  1
  N  N24  1  0.70574181  0.68299592  0.25364538  1
  N  N25  1  0.39593646  0.38845220  0.13455790  1
  N  N26  1  0.59930302  0.60066037  0.87153494  1
  N  N27  1  0.30600122  0.29779939  0.76827396  1
  N  N28  1  0.00355115  0.51395284  0.49867313  1
  N  N29  1  0.89417217  0.39050026  0.12371232  1
  N  N30  1  0.10157163  0.60857196  0.87717010  1
  N  N31  1  0.78204606  0.31355130  0.76094675  1
