# generated using pymatgen
data_HfAl15N16
_symmetry_space_group_name_H-M   'P 1'
_cell_length_a   5.94060210
_cell_length_b   5.92973540
_cell_length_c   12.69364972
_cell_angle_alpha   105.47065062
_cell_angle_beta   105.47320058
_cell_angle_gamma   54.71344154
_symmetry_Int_Tables_number   1
_chemical_formula_structural   HfAl15N16
_chemical_formula_sum   'Hf1 Al15 N16'
_cell_volume   348.14269941
_cell_formula_units_Z   1
loop_
 _symmetry_equiv_pos_site_id
 _symmetry_equiv_pos_as_xyz
  1  'x, y, z'
loop_
 _atom_site_type_symbol
 _atom_site_label
 _atom_site_symmetry_multiplicity
 _atom_site_fract_x
 _atom_site_fract_y
 _atom_site_fract_z
 _atom_site_occupancy
  Al  Al0  1  0.66802300  0.33290991  0.50816289  1
  Al  Al1  1  0.66640387  0.33343684  0.74997488  1
  Al  Al2  1  0.66507799  0.33593896  0.99248631  1
  Al  Al3  1  0.16319000  0.83926283  0.12009918  1
  Al  Al4  1  0.15601355  0.82904801  0.37695727  1
  Al  Al5  1  0.16716180  0.83698550  0.62774827  1
  Al  Al6  1  0.16776683  0.83578350  0.87413244  1
  Al  Al7  1  0.09212196  0.42300337  0.18321051  1
  Al  Al8  1  0.09436680  0.41407423  0.44551999  1
  Al  Al9  1  0.08470959  0.41843748  0.68947174  1
  Al  Al10  1  0.08443868  0.41718238  0.93550915  1
  Al  Al11  1  0.58659924  0.91665113  0.06162168  1
  Al  Al12  1  0.57117545  0.92869862  0.31281538  1
  Al  Al13  1  0.58391130  0.91316473  0.56327769  1
  Al  Al14  1  0.58531750  0.91611369  0.81229527  1
  Hf  Hf15  1  0.70746994  0.34109002  0.25611030  1
  N  N16  1  0.47810039  0.14121104  0.20122729  1
  N  N17  1  0.48230048  0.13997088  0.45541636  1
  N  N18  1  0.47560338  0.14148556  0.70203319  1
  N  N19  1  0.47654977  0.14308417  0.95088856  1
  N  N20  1  0.97856254  0.64615993  0.07348685  1
  N  N21  1  0.96595495  0.62752702  0.32579812  1
  N  N22  1  0.97732687  0.64633183  0.58087984  1
  N  N23  1  0.97741883  0.64487671  0.82737436  1
  N  N24  1  0.90812145  0.22834475  0.12413438  1
  N  N25  1  0.91052316  0.22041623  0.40974728  1
  N  N26  1  0.89472050  0.22770252  0.64443644  1
  N  N27  1  0.89377307  0.22633688  0.88615311  1
  N  N28  1  0.39574017  0.72588607  0.01239716  1
  N  N29  1  0.35555764  0.76178095  0.26552626  1
  N  N30  1  0.39123683  0.72163848  0.51594676  1
  N  N31  1  0.39476248  0.72546576  0.76516106  1
