# generated using pymatgen
data_Al3V8Cr(CoN4)4
_symmetry_space_group_name_H-M   'P 1'
_cell_length_a   5.00622758
_cell_length_b   5.82794597
_cell_length_c   9.50992415
_cell_angle_alpha   98.07757572
_cell_angle_beta   94.54928256
_cell_angle_gamma   90.24356157
_symmetry_Int_Tables_number   1
_chemical_formula_structural   Al3V8Cr(CoN4)4
_chemical_formula_sum   'Al3 V8 Cr1 Co4 N16'
_cell_volume   273.81020246
_cell_formula_units_Z   1
loop_
 _symmetry_equiv_pos_site_id
 _symmetry_equiv_pos_as_xyz
  1  'x, y, z'
loop_
 _atom_site_type_symbol
 _atom_site_label
 _atom_site_symmetry_multiplicity
 _atom_site_fract_x
 _atom_site_fract_y
 _atom_site_fract_z
 _atom_site_occupancy
  Al  Al0  1  0.25712189  0.87309076  0.50265028  1
  Al  Al1  1  0.38103626  0.06585153  0.24582607  1
  Al  Al2  1  0.99089525  0.00943167  0.00818356  1
  Co  Co3  1  0.59685979  0.94209960  0.76244668  1
  Co  Co4  1  0.53021001  0.27682007  0.01478883  1
  Co  Co5  1  0.86476398  0.81326823  0.26147601  1
  Co  Co6  1  0.88501954  0.32069782  0.26410327  1
  Cr  Cr7  1  0.00989482  0.51290515  0.00300300  1
  N  N8  1  0.32443883  0.44897988  0.87466390  1
  N  N9  1  0.28988233  0.95459441  0.87492950  1
  N  N10  1  0.71196155  0.53882061  0.13303633  1
  N  N11  1  0.80585642  0.72232434  0.87000797  1
  N  N12  1  0.44125687  0.65667227  0.61992482  1
  N  N13  1  0.54907893  0.85174698  0.37286703  1
  N  N14  1  0.68682188  0.03119096  0.12647466  1
  N  N15  1  0.80822956  0.20277204  0.87763806  1
  N  N16  1  0.43601364  0.14938150  0.62113642  1
  N  N17  1  0.55149490  0.34103393  0.36927757  1
  N  N18  1  0.07251405  0.60184300  0.37977269  1
  N  N19  1  0.18051343  0.79427598  0.12500648  1
  N  N20  1  0.94588633  0.90637914  0.61926988  1
  N  N21  1  0.08236937  0.09284430  0.37625009  1
  N  N22  1  0.18651382  0.27689756  0.12202260  1
  N  N23  1  0.92125188  0.41523952  0.61855645  1
  V  V24  1  0.23345675  0.37633662  0.51390822  1
  V  V25  1  0.65433489  0.41757805  0.75337527  1
  V  V26  1  0.73060915  0.61635658  0.47123245  1
  V  V27  1  0.37567217  0.55703815  0.22217328  1
  V  V28  1  0.48224640  0.73014514  0.98445739  1
  V  V29  1  0.78228125  0.12530175  0.50237285  1
  V  V30  1  0.11633456  0.66972269  0.75783358  1
  V  V31  1  0.11517949  0.20835978  0.75133481  1
