# generated using pymatgen
data_Al6V6CrCo3N16
_symmetry_space_group_name_H-M   'P 1'
_cell_length_a   8.73780462
_cell_length_b   8.70073036
_cell_length_c   5.81222306
_cell_angle_alpha   90.73953513
_cell_angle_beta   89.12291695
_cell_angle_gamma   141.51318617
_symmetry_Int_Tables_number   1
_chemical_formula_structural   Al6V6CrCo3N16
_chemical_formula_sum   'Al6 V6 Cr1 Co3 N16'
_cell_volume   274.96209592
_cell_formula_units_Z   1
loop_
 _symmetry_equiv_pos_site_id
 _symmetry_equiv_pos_as_xyz
  1  'x, y, z'
loop_
 _atom_site_type_symbol
 _atom_site_label
 _atom_site_symmetry_multiplicity
 _atom_site_fract_x
 _atom_site_fract_y
 _atom_site_fract_z
 _atom_site_occupancy
  Al  Al0  1  0.74654180  0.24464603  0.49543420  1
  Al  Al1  1  0.50574865  0.49550769  0.50495047  1
  Al  Al2  1  0.86380061  0.62603257  0.74028619  1
  Al  Al3  1  0.64292169  0.88913798  0.74181795  1
  Al  Al4  1  0.36912870  0.11355805  0.26795375  1
  Al  Al5  1  0.99667126  0.00051133  0.50229651  1
  Co  Co6  1  0.86712162  0.60912085  0.22758937  1
  Co  Co7  1  0.23989602  0.75104706  0.96631702  1
  Co  Co8  1  0.00560794  0.00302766  0.00940983  1
  Cr  Cr9  1  0.22874896  0.70901642  0.49003137  1
  N  N10  1  0.62343286  0.37211865  0.50274661  1
  N  N11  1  0.99600497  0.50628599  0.74185480  1
  N  N12  1  0.61237046  0.36896331  0.99367041  1
  N  N13  1  0.01369261  0.51772042  0.25221456  1
  N  N14  1  0.38961287  0.62653427  0.50583939  1
  N  N15  1  0.38507851  0.65023025  0.98497341  1
  N  N16  1  0.74908198  0.75198648  0.74903823  1
  N  N17  1  0.74817377  0.75148477  0.25988964  1
  N  N18  1  0.12593745  0.87820238  0.51124782  1
  N  N19  1  0.51527501  0.00888354  0.74767541  1
  N  N20  1  0.11182889  0.87007554  0.00509673  1
  N  N21  1  0.51052857  0.01589169  0.25702743  1
  N  N22  1  0.87752413  0.13144201  0.50086562  1
  N  N23  1  0.24434100  0.24773988  0.74681863  1
  N  N24  1  0.87129314  0.12588139  0.99650623  1
  N  N25  1  0.24810867  0.23993722  0.26402223  1
  V  V26  1  0.78328407  0.28504266  0.00772077  1
  V  V27  1  0.15013692  0.39151413  0.23629146  1
  V  V28  1  0.13993521  0.39370524  0.77089152  1
  V  V29  1  0.46884632  0.48503506  0.00886610  1
  V  V30  1  0.60210182  0.84868210  0.23078351  1
  V  V31  1  0.36722352  0.09103742  0.77987285  1
