# generated using pymatgen
data_Ti3Al
_symmetry_space_group_name_H-M   'P 1'
_cell_length_a   11.11178831
_cell_length_b   11.07725157
_cell_length_c   5.45860995
_cell_angle_alpha   93.31980452
_cell_angle_beta   93.18425098
_cell_angle_gamma   53.60602546
_symmetry_Int_Tables_number   1
_chemical_formula_structural   Ti3Al
_chemical_formula_sum   'Ti24 Al8'
_cell_volume   539.74654184
_cell_formula_units_Z   8
loop_
 _symmetry_equiv_pos_site_id
 _symmetry_equiv_pos_as_xyz
  1  'x, y, z'
loop_
 _atom_site_type_symbol
 _atom_site_label
 _atom_site_symmetry_multiplicity
 _atom_site_fract_x
 _atom_site_fract_y
 _atom_site_fract_z
 _atom_site_occupancy
  Al  Al0  1  0.68739518  0.19279302  0.11863559  1
  Al  Al1  1  0.50095127  0.50417772  0.00220599  1
  Al  Al2  1  0.55999027  0.06660656  0.37512632  1
  Al  Al3  1  0.80939773  0.31617439  0.87823539  1
  Al  Al4  1  0.58485884  0.41592310  0.49502985  1
  Al  Al5  1  0.39516228  0.72929567  0.37442449  1
  Al  Al6  1  0.07834112  0.91940672  0.50064973  1
  Al  Al7  1  0.01800550  0.35069368  0.13071131  1
  Ti  Ti8  1  0.99440225  0.99907480  0.00014002  1
  Ti  Ti9  1  0.38333762  0.36908479  0.24668797  1
  Ti  Ti10  1  0.18811377  0.68187557  0.12960703  1
  Ti  Ti11  1  0.25313280  0.24067052  0.49441452  1
  Ti  Ti12  1  0.06982993  0.54957519  0.37537063  1
  Ti  Ti13  1  0.11490717  0.12334784  0.76401288  1
  Ti  Ti14  1  0.87949289  0.87254026  0.24624271  1
  Ti  Ti15  1  0.93854071  0.43408130  0.62476683  1
  Ti  Ti16  1  0.75363388  0.76140168  0.50519565  1
  Ti  Ti17  1  0.62232970  0.62546172  0.73597225  1
  Ti  Ti18  1  0.44469833  0.93282111  0.62661799  1
  Ti  Ti19  1  0.31174995  0.81737986  0.86892582  1
  Ti  Ti20  1  0.89402776  0.23307387  0.38635860  1
  Ti  Ti21  1  0.45365792  0.29634066  0.74981019  1
  Ti  Ti22  1  0.27864349  0.60315610  0.63622657  1
  Ti  Ti23  1  0.14552269  0.46993577  0.87583808  1
  Ti  Ti24  1  0.97042502  0.78661724  0.74852470  1
  Ti  Ti25  1  0.76667234  0.10369246  0.61539476  1
  Ti  Ti26  1  0.83537039  0.66722870  0.99889519  1
  Ti  Ti27  1  0.63680961  0.99661493  0.87338371  1
  Ti  Ti28  1  0.71118521  0.55148510  0.23777797  1
  Ti  Ti29  1  0.52596702  0.85588206  0.12061626  1
  Ti  Ti30  1  0.32612945  0.16338253  0.00350188  1
  Ti  Ti31  1  0.20065084  0.03687401  0.26069702  1
