# generated using pymatgen
data_Hf4C3N
_symmetry_space_group_name_H-M   'P 1'
_cell_length_a   4.62008811
_cell_length_b   4.62008811
_cell_length_c   5.65555508
_cell_angle_alpha   65.89541027
_cell_angle_beta   65.89541035
_cell_angle_gamma   89.99940101
_symmetry_Int_Tables_number   1
_chemical_formula_structural   Hf4C3N
_chemical_formula_sum   'Hf4 C3 N1'
_cell_volume   98.54818470
_cell_formula_units_Z   1
loop_
 _symmetry_equiv_pos_site_id
 _symmetry_equiv_pos_as_xyz
  1  'x, y, z'
loop_
 _atom_site_type_symbol
 _atom_site_label
 _atom_site_symmetry_multiplicity
 _atom_site_fract_x
 _atom_site_fract_y
 _atom_site_fract_z
 _atom_site_occupancy
  C  C0  1  0.25000087  0.24999913  0.50000000  1
  C  C1  1  0.50000000  0.00000000  0.00000000  1
  C  C2  1  0.74999913  0.75000087  0.50000000  1
  N  N3  1  0.00000000  0.50000000  0.00000000  1
  Hf  Hf4  1  0.50000000  0.50000000  0.00000000  1
  Hf  Hf5  1  0.74928549  0.24928549  0.50141184  1
  Hf  Hf6  1  0.00000000  0.00000000  0.00000000  1
  Hf  Hf7  1  0.25071451  0.75071451  0.49858816  1
