# generated using pymatgen
data_HfZrScTiMo
_symmetry_space_group_name_H-M   'P 1'
_cell_length_a   17.50276424
_cell_length_b   17.29619968
_cell_length_c   6.70378622
_cell_angle_alpha   89.80062918
_cell_angle_beta   89.97818700
_cell_angle_gamma   90.13184073
_symmetry_Int_Tables_number   1
_chemical_formula_structural   HfZrScTiMo
_chemical_formula_sum   'Hf20 Zr20 Sc20 Ti20 Mo20'
_cell_volume   2029.42814052
_cell_formula_units_Z   20
loop_
 _symmetry_equiv_pos_site_id
 _symmetry_equiv_pos_as_xyz
  1  'x, y, z'
loop_
 _atom_site_type_symbol
 _atom_site_label
 _atom_site_symmetry_multiplicity
 _atom_site_fract_x
 _atom_site_fract_y
 _atom_site_fract_z
 _atom_site_occupancy
  Zr  Zr0  1  0.99627041  0.98315566  0.99345089  1
  Zr  Zr1  1  0.10136467  0.50163474  0.26445754  1
  Zr  Zr2  1  0.10920031  0.49824275  0.74965489  1
  Zr  Zr3  1  0.11433594  0.89472581  0.76724829  1
  Zr  Zr4  1  0.18781290  0.02704502  0.99735661  1
  Zr  Zr5  1  0.31258174  0.11993338  0.24931587  1
  Zr  Zr6  1  0.28760983  0.91514112  0.75043185  1
  Zr  Zr7  1  0.51416875  0.30082377  0.25818047  1
  Zr  Zr8  1  0.41040326  0.38282876  0.97410451  1
  Zr  Zr9  1  0.49733004  0.50008180  0.25400056  1
  Zr  Zr10  1  0.40939810  0.38879037  0.53338633  1
  Zr  Zr11  1  0.50096106  0.68109542  0.76695266  1
  Zr  Zr12  1  0.71782196  0.31026918  0.75249611  1
  Zr  Zr13  1  0.69495416  0.90263119  0.22716908  1
  Zr  Zr14  1  0.58068347  0.81038556  0.49410807  1
  Zr  Zr15  1  0.88611561  0.30825673  0.25599812  1
  Zr  Zr16  1  0.79079111  0.60403974  0.00986810  1
  Zr  Zr17  1  0.91384710  0.72012925  0.72227172  1
  Zr  Zr18  1  0.90985480  0.87600025  0.30672554  1
  Zr  Zr19  1  0.78111929  0.78832144  0.48151621  1
  Ti  Ti20  1  0.07342566  0.10701118  0.24411084  1
  Ti  Ti21  1  0.00401436  0.21857741  0.49570125  1
  Ti  Ti22  1  0.99319657  0.39347532  0.49164955  1
  Ti  Ti23  1  0.01664278  0.61190916  0.51921824  1
  Ti  Ti24  1  0.02299121  0.78691573  0.02025555  1
  Ti  Ti25  1  0.11403433  0.89862154  0.21983463  1
  Ti  Ti26  1  0.03600678  0.78484879  0.48546406  1
  Ti  Ti27  1  0.18270403  0.38848662  0.04582531  1
  Ti  Ti28  1  0.49253006  0.11485817  0.23650584  1
  Ti  Ti29  1  0.41495616  0.99456762  0.50966248  1
  Ti  Ti30  1  0.41046901  0.22428973  0.54628920  1
  Ti  Ti31  1  0.38009439  0.60811601  0.00397429  1
  Ti  Ti32  1  0.38116299  0.60866652  0.50254642  1
  Ti  Ti33  1  0.57412180  0.99339624  0.01292500  1
  Ti  Ti34  1  0.69359738  0.07900118  0.21179384  1
  Ti  Ti35  1  0.61002064  0.18094871  0.45968152  1
  Ti  Ti36  1  0.61389667  0.41630109  0.02277516  1
  Ti  Ti37  1  0.70787595  0.48807674  0.74956818  1
  Ti  Ti38  1  0.67657294  0.70898660  0.20798806  1
  Ti  Ti39  1  0.89060707  0.49058577  0.25267037  1
  Sc  Sc40  1  0.00672334  0.98809020  0.50169005  1
  Sc  Sc41  1  0.00515818  0.60520580  0.99752301  1
  Sc  Sc42  1  0.28122544  0.30665273  0.74356222  1
  Sc  Sc43  1  0.29332169  0.49507132  0.75258452  1
  Sc  Sc44  1  0.20619834  0.77691512  0.00223401  1
  Sc  Sc45  1  0.29221058  0.91333049  0.25516949  1
  Sc  Sc46  1  0.20862857  0.78183871  0.50115824  1
  Sc  Sc47  1  0.40653512  0.99777158  0.99459347  1
  Sc  Sc48  1  0.54210124  0.29866137  0.75368757  1
  Sc  Sc49  1  0.49879194  0.68494744  0.24771936  1
  Sc  Sc50  1  0.39098176  0.79401187  0.99657503  1
  Sc  Sc51  1  0.39507732  0.79723691  0.50555609  1
  Sc  Sc52  1  0.70205492  0.30943870  0.25848377  1
  Sc  Sc53  1  0.61558037  0.59369831  0.48937093  1
  Sc  Sc54  1  0.67999431  0.70718201  0.77762037  1
  Sc  Sc55  1  0.91804283  0.10368578  0.73528879  1
  Sc  Sc56  1  0.80025394  0.19100785  0.99528046  1
  Sc  Sc57  1  0.79569001  0.18486043  0.49634305  1
  Sc  Sc58  1  0.79428029  0.60442341  0.48731728  1
  Sc  Sc59  1  0.80886348  0.80022993  0.99984446  1
  Mo  Mo60  1  0.08518079  0.11149959  0.74156396  1
  Mo  Mo61  1  0.09375367  0.30361716  0.25839486  1
  Mo  Mo62  1  0.10778924  0.68649101  0.25800691  1
  Mo  Mo63  1  0.10904202  0.68654471  0.74912927  1
  Mo  Mo64  1  0.19284593  0.39704822  0.46137960  1
  Mo  Mo65  1  0.19798450  0.59848353  0.00586168  1
  Mo  Mo66  1  0.29267418  0.67701877  0.25413220  1
  Mo  Mo67  1  0.19984416  0.59881576  0.50300722  1
  Mo  Mo68  1  0.29328818  0.67663005  0.75122851  1
  Mo  Mo69  1  0.40591195  0.21784307  0.96721867  1
  Mo  Mo70  1  0.48764455  0.90849228  0.26133215  1
  Mo  Mo71  1  0.49786655  0.90856795  0.73929413  1
  Mo  Mo72  1  0.60816781  0.18896803  0.05129893  1
  Mo  Mo73  1  0.70204619  0.49636867  0.24297800  1
  Mo  Mo74  1  0.61485482  0.41738161  0.48739702  1
  Mo  Mo75  1  0.61143894  0.58596132  0.01824690  1
  Mo  Mo76  1  0.89540269  0.31411059  0.73189444  1
  Mo  Mo77  1  0.80310202  0.41004832  0.99979208  1
  Mo  Mo78  1  0.80652374  0.40663008  0.50553471  1
  Mo  Mo79  1  0.90239850  0.88682134  0.72057018  1
  Hf  Hf80  1  0.99999423  0.21691381  0.98605508  1
  Hf  Hf81  1  0.10473311  0.31678792  0.72633846  1
  Hf  Hf82  1  0.99509263  0.39647421  0.00237441  1
  Hf  Hf83  1  0.18542205  0.01962154  0.49591152  1
  Hf  Hf84  1  0.30937015  0.11373092  0.73824964  1
  Hf  Hf85  1  0.18451649  0.20217941  0.00182080  1
  Hf  Hf86  1  0.30310570  0.30093122  0.25504950  1
  Hf  Hf87  1  0.18385016  0.19470941  0.48556532  1
  Hf  Hf88  1  0.29272959  0.49527282  0.25348180  1
  Hf  Hf89  1  0.50315440  0.11453026  0.76725635  1
  Hf  Hf90  1  0.50951861  0.50046076  0.75111500  1
  Hf  Hf91  1  0.58847580  0.00246225  0.48946378  1
  Hf  Hf92  1  0.68718485  0.09020269  0.78191749  1
  Hf  Hf93  1  0.56781512  0.81659680  0.00367047  1
  Hf  Hf94  1  0.68891762  0.90805211  0.76704776  1
  Hf  Hf95  1  0.81702233  0.98939640  0.98266725  1
  Hf  Hf96  1  0.91262197  0.10268378  0.24608628  1
  Hf  Hf97  1  0.80378861  0.99677224  0.50466363  1
  Hf  Hf98  1  0.89476824  0.49750676  0.74054513  1
  Hf  Hf99  1  0.91289898  0.70194053  0.27372346  1
