# generated using pymatgen
data_CrFeCoNi
_symmetry_space_group_name_H-M   'P 1'
_cell_length_a   4.93465107
_cell_length_b   5.00043408
_cell_length_c   7.10005100
_cell_angle_alpha   90.10694505
_cell_angle_beta   89.85956956
_cell_angle_gamma   90.37377818
_symmetry_Int_Tables_number   1
_chemical_formula_structural   CrFeCoNi
_chemical_formula_sum   'Cr4 Fe4 Co4 Ni4'
_cell_volume   175.19202589
_cell_formula_units_Z   4
loop_
 _symmetry_equiv_pos_site_id
 _symmetry_equiv_pos_as_xyz
  1  'x, y, z'
loop_
 _atom_site_type_symbol
 _atom_site_label
 _atom_site_symmetry_multiplicity
 _atom_site_fract_x
 _atom_site_fract_y
 _atom_site_fract_z
 _atom_site_occupancy
  Cr  Cr0  1  0.22756543  0.75210352  0.74918887  1
  Cr  Cr1  1  0.74304758  0.24902753  0.26203646  1
  Cr  Cr2  1  0.52447933  0.49965580  0.99954614  1
  Cr  Cr3  1  0.01533452  0.49540949  0.00031702  1
  Co  Co4  1  0.49955049  0.49920688  0.49999954  1
  Co  Co5  1  0.24663679  0.25152517  0.25160040  1
  Co  Co6  1  0.24957661  0.74351549  0.24850529  1
  Co  Co7  1  0.99470905  -0.00031615  0.00566896  1
  Fe  Fe8  1  0.74239029  0.75286495  0.74329066  1
  Fe  Fe9  1  0.75199973  0.75505990  0.25273228  1
  Fe  Fe10  1  -0.00038941  0.00552522  0.49207038  1
  Fe  Fe11  1  0.00583603  0.50458841  0.49953042  1
  Ni  Ni12  1  0.75458668  0.24809201  0.74720954  1
  Ni  Ni13  1  0.25284424  0.24664575  0.74921245  1
  Ni  Ni14  1  0.49600018  0.99756218  0.49956669  1
  Ni  Ni15  1  0.49583243  -0.00046614  0.99952493  1
