# generated using pymatgen
data_AlFeCoNiPt
_symmetry_space_group_name_H-M   'P 1'
_cell_length_a   6.40048100
_cell_length_b   10.83389056
_cell_length_c   11.96725777
_cell_angle_alpha   105.38410631
_cell_angle_beta   100.67348026
_cell_angle_gamma   101.51538485
_symmetry_Int_Tables_number   1
_chemical_formula_structural   AlFeCoNiPt
_chemical_formula_sum   'Al12 Fe12 Co12 Ni12 Pt12'
_cell_volume   758.67444355
_cell_formula_units_Z   12
loop_
 _symmetry_equiv_pos_site_id
 _symmetry_equiv_pos_as_xyz
  1  'x, y, z'
loop_
 _atom_site_type_symbol
 _atom_site_label
 _atom_site_symmetry_multiplicity
 _atom_site_fract_x
 _atom_site_fract_y
 _atom_site_fract_z
 _atom_site_occupancy
  Al  Al0  1  0.65435045  0.83748858  0.17911037  1
  Al  Al1  1  0.46629509  0.38398151  0.02592955  1
  Al  Al2  1  0.08389113  0.74627526  0.46834254  1
  Al  Al3  1  0.52148902  0.84856829  0.71421342  1
  Al  Al4  1  0.00269818  0.50131645  0.50879326  1
  Al  Al5  1  0.27708306  0.93278856  0.87221719  1
  Al  Al6  1  0.46024719  0.12963405  0.25388340  1
  Al  Al7  1  0.61707975  0.84770122  0.94643171  1
  Al  Al8  1  0.52880155  0.11440491  0.48658823  1
  Al  Al9  1  0.53143440  0.61383742  0.97957049  1
  Al  Al10  1  0.73799010  0.31903014  0.88258894  1
  Al  Al11  1  0.93707396  0.02303455  0.78228105  1
  Co  Co12  1  0.93576977  0.76013932  0.02730565  1
  Co  Co13  1  0.12896839  0.97584556  0.42875013  1
  Co  Co14  1  0.85979010  0.53202347  0.06785422  1
  Co  Co15  1  0.80197975  0.29538801  0.09473364  1
  Co  Co16  1  0.40561935  0.15607281  0.03512002  1
  Co  Co17  1  0.72156547  0.56296590  0.62820592  1
  Co  Co18  1  0.20536248  0.19777265  0.39510034  1
  Co  Co19  1  0.33643243  0.42070934  0.58519559  1
  Co  Co20  1  0.20441062  0.70512044  0.89883937  1
  Co  Co21  1  0.39165537  0.39993691  0.79398642  1
  Co  Co22  1  0.34418685  0.17786152  0.83835291  1
  Co  Co23  1  0.66050804  0.08135257  0.90730172  1
  Fe  Fe24  1  0.07033577  0.99036596  0.22210351  1
  Fe  Fe25  1  0.34723791  0.66546370  0.33014989  1
  Fe  Fe26  1  0.65541601  0.58374409  0.41912671  1
  Fe  Fe27  1  0.79105624  0.77807774  0.59644269  1
  Fe  Fe28  1  0.12058893  0.21811177  0.17135207  1
  Fe  Fe29  1  0.26893647  0.42859388  0.37195075  1
  Fe  Fe30  1  0.59158699  0.36098503  0.46077925  1
  Fe  Fe31  1  0.87970467  0.76947043  0.80876562  1
  Fe  Fe32  1  0.08295666  0.48943298  0.72787939  1
  Fe  Fe33  1  0.87037192  0.03177394  0.56358392  1
  Fe  Fe34  1  0.60581179  0.10223789  0.71011918  1
  Fe  Fe35  1  0.06381847  0.23336741  0.97238257  1
  Ni  Ni36  1  0.31899851  0.90718980  0.08584636  1
  Ni  Ni37  1  0.27180280  0.68667706  0.11658665  1
  Ni  Ni38  1  0.39569464  0.90990886  0.30392443  1
  Ni  Ni39  1  0.59579770  0.60211383  0.19537292  1
  Ni  Ni40  1  0.19191914  0.45265506  0.15501218  1
  Ni  Ni41  1  0.47462547  0.88608480  0.51740294  1
  Ni  Ni42  1  0.39346501  0.64193471  0.54302570  1
  Ni  Ni43  1  0.12878849  0.70535003  0.68187353  1
  Ni  Ni44  1  0.46760158  0.63634865  0.76360064  1
  Ni  Ni45  1  0.79837140  0.05157057  0.35342057  1
  Ni  Ni46  1  0.66709435  0.33709727  0.67154667  1
  Ni  Ni47  1  0.99806717  0.24666579  0.75563934  1
  Pt  Pt48  1  0.00497182  0.75608247  0.24162456  1
  Pt  Pt49  1  0.73214413  0.81918973  0.38939630  1
  Pt  Pt50  1  0.19993407  0.94656035  0.65814420  1
  Pt  Pt51  1  0.94360501  0.52602299  0.29301083  1
  Pt  Pt52  1  0.51845134  0.36536927  0.23563629  1
  Pt  Pt53  1  0.00855440  0.99489666  0.98914003  1
  Pt  Pt54  1  0.71880503  0.05544938  0.12585271  1
  Pt  Pt55  1  0.87121783  0.28308875  0.31911389  1
  Pt  Pt56  1  0.92430749  0.26970377  0.54210059  1
  Pt  Pt57  1  0.79053881  0.55068347  0.84801371  1
  Pt  Pt58  1  0.27702006  0.18694561  0.61799824  1
  Pt  Pt59  1  0.14571944  0.46753685  0.94138508  1
