# generated using pymatgen
data_TiV
_symmetry_space_group_name_H-M   'P 1'
_cell_length_a   7.02110985
_cell_length_b   8.04182851
_cell_length_c   9.30837966
_cell_angle_alpha   73.78542750
_cell_angle_beta   76.12920079
_cell_angle_gamma   85.08003858
_symmetry_Int_Tables_number   1
_chemical_formula_structural   TiV
_chemical_formula_sum   'Ti16 V16'
_cell_volume   489.85236692
_cell_formula_units_Z   16
loop_
 _symmetry_equiv_pos_site_id
 _symmetry_equiv_pos_as_xyz
  1  'x, y, z'
loop_
 _atom_site_type_symbol
 _atom_site_label
 _atom_site_symmetry_multiplicity
 _atom_site_fract_x
 _atom_site_fract_y
 _atom_site_fract_z
 _atom_site_occupancy
  Ti  Ti0  1  0.55441594  0.90470077  0.12784108  1
  Ti  Ti1  1  0.87360332  0.68796277  0.19629367  1
  Ti  Ti2  1  0.60951730  0.57684260  0.04942726  1
  Ti  Ti3  1  0.90775914  0.34945608  0.12390731  1
  Ti  Ti4  1  0.39631187  0.93353271  0.44236274  1
  Ti  Ti5  1  0.12649352  0.81447762  0.32890672  1
  Ti  Ti6  1  0.45543595  0.58899981  0.35649196  1
  Ti  Ti7  1  0.21448698  0.47666173  0.19432326  1
  Ti  Ti8  1  0.24689524  0.14203893  0.11365195  1
  Ti  Ti9  1  0.80065592  0.02296644  0.27544702  1
  Ti  Ti10  1  0.00834908  0.49089809  0.50248136  1
  Ti  Ti11  1  0.06729614  0.15877029  0.40981966  1
  Ti  Ti12  1  0.86089566  0.18360371  0.69698845  1
  Ti  Ti13  1  0.06979201  0.65269817  0.90133370  1
  Ti  Ti14  1  0.12015176  0.31914590  0.81071463  1
  Ti  Ti15  1  0.44088302  0.09349509  0.83853295  1
  V  V16  1  0.27384166  0.80510034  0.02564064  1
  V  V17  1  0.93442578  0.83170162  0.61028653  1
  V  V18  1  0.69942946  0.71123440  0.49343316  1
  V  V19  1  0.73007176  0.35019147  0.41046478  1
  V  V20  1  0.50852306  0.25596709  0.25472982  1
  V  V21  1  0.99124917  0.99946973  0.98126883  1
  V  V22  1  0.18493422  0.96990673  0.71859194  1
  V  V23  1  0.76610345  0.86857058  0.85503742  1
  V  V24  1  0.49774358  0.75381673  0.74570259  1
  V  V25  1  0.25879359  0.63093051  0.62243753  1
  V  V26  1  0.79602272  0.53786206  0.77302812  1
  V  V27  1  0.55646156  0.41303342  0.64899507  1
  V  V28  1  0.33089428  0.26317424  0.53696296  1
  V  V29  1  0.62351396  0.05163703  0.56670646  1
  V  V30  1  0.40641233  0.43387064  0.91032708  1
  V  V31  1  0.68863656  0.22728267  0.97786335  1
