# generated using pymatgen
data_Ti3V
_symmetry_space_group_name_H-M   'P 1'
_cell_length_a   7.68179653
_cell_length_b   7.78066222
_cell_length_c   9.77781178
_cell_angle_alpha   105.34588141
_cell_angle_beta   105.10917246
_cell_angle_gamma   70.74263945
_symmetry_Int_Tables_number   1
_chemical_formula_structural   Ti3V
_chemical_formula_sum   'Ti24 V8'
_cell_volume   522.30647115
_cell_formula_units_Z   8
loop_
 _symmetry_equiv_pos_site_id
 _symmetry_equiv_pos_as_xyz
  1  'x, y, z'
loop_
 _atom_site_type_symbol
 _atom_site_label
 _atom_site_symmetry_multiplicity
 _atom_site_fract_x
 _atom_site_fract_y
 _atom_site_fract_z
 _atom_site_occupancy
  Ti  Ti0  1  0.28865422  0.32739877  0.74676602  1
  Ti  Ti1  1  0.14471892  0.08962972  0.52506864  1
  Ti  Ti2  1  0.19738023  0.70002169  0.73859938  1
  Ti  Ti3  1  0.99769673  0.48791077  0.49829517  1
  Ti  Ti4  1  0.68920800  0.17178271  0.74329823  1
  Ti  Ti5  1  0.49547815  0.02436811  0.47041754  1
  Ti  Ti6  1  0.58481304  0.54510191  0.74777966  1
  Ti  Ti7  1  0.18565528  0.18673865  0.26521796  1
  Ti  Ti8  1  0.43858848  0.94339930  0.76190614  1
  Ti  Ti9  1  0.23586731  0.71672251  0.47160433  1
  Ti  Ti10  1  0.05755987  0.54980508  0.21542578  1
  Ti  Ti11  1  0.75253190  0.26262883  0.50154319  1
  Ti  Ti12  1  0.54657531  0.05958670  0.20789097  1
  Ti  Ti13  1  0.83426139  0.79806385  0.77988526  1
  Ti  Ti14  1  0.61121558  0.67781752  0.52449702  1
  Ti  Ti15  1  0.45106451  0.43716681  0.28467485  1
  Ti  Ti16  1  0.25523672  0.25662907  0.00459189  1
  Ti  Ti17  1  0.30725189  0.79258903  0.22325907  1
  Ti  Ti18  1  0.80126254  0.31831513  0.21257232  1
  Ti  Ti19  1  0.88261008  0.88762465  0.52930800  1
  Ti  Ti20  1  0.70112969  0.70153385  0.27691838  1
  Ti  Ti21  1  0.49855151  0.49675575  0.00277686  1
  Ti  Ti22  1  0.93208421  0.95110018  0.25963415  1
  Ti  Ti23  1  0.73981821  0.74727874  0.01313887  1
  V  V24  1  0.06644872  0.08254475  0.77759440  1
  V  V25  1  0.37449992  0.38204975  0.52206712  1
  V  V26  1  0.00328036  0.00682909  0.00700793  1
  V  V27  1  0.94495760  0.42229723  0.76419616  1
  V  V28  1  0.11724054  0.62055724  0.97480125  1
  V  V29  1  0.66044775  0.09998216  0.98926705  1
  V  V30  1  0.33562038  0.88497302  0.98803401  1
  V  V31  1  0.86829099  0.37079745  0.97196240  1
