# generated using pymatgen
data_Al4CrFeCoNi3
_symmetry_space_group_name_H-M   'P 1'
_cell_length_a   6.85299181
_cell_length_b   6.83120314
_cell_length_c   11.32830817
_cell_angle_alpha   76.95473886
_cell_angle_beta   73.44094578
_cell_angle_gamma   83.08630217
_symmetry_Int_Tables_number   1
_chemical_formula_structural   Al4CrFeCoNi3
_chemical_formula_sum   'Al16 Cr4 Fe4 Co4 Ni12'
_cell_volume   494.31933202
_cell_formula_units_Z   4
loop_
 _symmetry_equiv_pos_site_id
 _symmetry_equiv_pos_as_xyz
  1  'x, y, z'
loop_
 _atom_site_type_symbol
 _atom_site_label
 _atom_site_symmetry_multiplicity
 _atom_site_fract_x
 _atom_site_fract_y
 _atom_site_fract_z
 _atom_site_occupancy
  Al  Al0  1  0.01103933  0.99098690  0.00232912  1
  Al  Al1  1  0.58942411  0.10338561  0.01188246  1
  Al  Al2  1  0.12563572  0.62223553  0.99833110  1
  Al  Al3  1  0.48315692  0.50635371  0.00677514  1
  Al  Al4  1  0.86675467  0.37061465  0.00913193  1
  Al  Al5  1  0.54512902  0.27501561  0.22867549  1
  Al  Al6  1  0.96503929  0.14380568  0.21871789  1
  Al  Al7  1  0.22961188  0.31517606  0.58380213  1
  Al  Al8  1  0.62811829  0.21411621  0.58749250  1
  Al  Al9  1  0.41738226  0.82606973  0.38186473  1
  Al  Al10  1  0.10330222  0.72067473  0.60055289  1
  Al  Al11  1  0.78841680  0.68083751  0.39794917  1
  Al  Al12  1  0.48290119  0.57460024  0.61655876  1
  Al  Al13  1  0.91834467  0.21364538  0.78507693  1
  Al  Al14  1  0.78300441  0.59104663  0.79494363  1
  Al  Al15  1  0.64579189  0.96224628  0.80590747  1
  Co  Co16  1  0.19807681  0.40951161  0.20070419  1
  Co  Co17  1  0.47163941  0.65100887  0.19499442  1
  Co  Co18  1  0.87396839  0.47578830  0.59265047  1
  Co  Co19  1  0.03506156  0.84523207  0.80556850  1
  Cr  Cr20  1  0.17319755  0.55831456  0.37175109  1
  Cr  Cr21  1  0.82916214  0.54305396  0.20193147  1
  Cr  Cr22  1  0.16238458  0.46054170  0.79779131  1
  Cr  Cr23  1  0.72651775  0.83884400  0.59457047  1
  Fe  Fe24  1  0.07854727  0.76267839  0.20371657  1
  Fe  Fe25  1  0.75820262  0.74027654  0.99527295  1
  Fe  Fe26  1  0.28836486  0.08898365  0.79420905  1
  Fe  Fe27  1  0.03709892  0.90857882  0.40500095  1
  Ni  Ni28  1  0.23331173  0.25338299  0.99617969  1
  Ni  Ni29  1  0.32160551  0.02273813  0.19935745  1
  Ni  Ni30  1  0.26160469  0.16890141  0.40215746  1
  Ni  Ni31  1  0.65804966  0.05287895  0.40131747  1
  Ni  Ni32  1  0.36388260  0.86443100  0.00730954  1
  Ni  Ni33  1  0.52592260  0.45118680  0.40637826  1
  Ni  Ni34  1  0.91420693  0.31134531  0.40016191  1
  Ni  Ni35  1  0.97206954  0.07492803  0.59819190  1
  Ni  Ni36  1  0.71702427  0.91254223  0.19096755  1
  Ni  Ni37  1  0.54603166  0.33276240  0.80473004  1
  Ni  Ni38  1  0.35842901  0.94462322  0.60013020  1
  Ni  Ni39  1  0.41258729  0.71665664  0.80496574  1
