# generated using pymatgen
data_Fe6(CoNi)7
_symmetry_space_group_name_H-M   'P 1'
_cell_length_a   5.55240864
_cell_length_b   5.57491548
_cell_length_c   7.02926314
_cell_angle_alpha   90.02940320
_cell_angle_beta   90.14092096
_cell_angle_gamma   89.87033835
_symmetry_Int_Tables_number   1
_chemical_formula_structural   Fe6(CoNi)7
_chemical_formula_sum   'Fe6 Co7 Ni7'
_cell_volume   217.58403590
_cell_formula_units_Z   1
loop_
 _symmetry_equiv_pos_site_id
 _symmetry_equiv_pos_as_xyz
  1  'x, y, z'
loop_
 _atom_site_type_symbol
 _atom_site_label
 _atom_site_symmetry_multiplicity
 _atom_site_fract_x
 _atom_site_fract_y
 _atom_site_fract_z
 _atom_site_occupancy
  Co  Co0  1  0.29985515  0.89742770  0.75075860  1
  Co  Co1  1  0.69858529  0.09853765  0.75222545  1
  Co  Co2  1  0.20426927  0.60330705  0.99966887  1
  Co  Co3  1  0.30407315  0.89926770  0.24800024  1
  Co  Co4  1  0.39594503  0.19513982  0.99814346  1
  Co  Co5  1  0.59783623  0.80753285  0.50079563  1
  Co  Co6  1  0.59596959  0.80444102  -0.00030132  1
  Fe  Fe7  1  0.99668345  0.99272456  0.50058566  1
  Fe  Fe8  1  0.09254712  0.30179042  0.74570865  1
  Fe  Fe9  1  0.00454169  -0.00068935  0.99950442  1
  Fe  Fe10  1  0.39985778  0.19638992  0.50222440  1
  Fe  Fe11  1  0.70534549  0.10650497  0.25293606  1
  Fe  Fe12  1  0.80170380  0.39472968  0.50018945  1
  Ni  Ni13  1  0.10162968  0.30081105  0.25024152  1
  Ni  Ni14  1  0.20400108  0.60209887  0.50006068  1
  Ni  Ni15  1  0.50021663  0.49916840  0.75001077  1
  Ni  Ni16  1  0.49940038  0.50027097  0.24990817  1
  Ni  Ni17  1  0.89991390  0.70092027  0.75140936  1
  Ni  Ni18  1  0.79886331  0.39910443  -0.00075857  1
  Ni  Ni19  1  0.89876196  0.70052201  0.24868853  1
