# generated using pymatgen
data_TiAl
_symmetry_space_group_name_H-M   'P 1'
_cell_length_a   10.86975488
_cell_length_b   10.91074791
_cell_length_c   5.79333233
_cell_angle_alpha   74.60408348
_cell_angle_beta   105.45542666
_cell_angle_gamma   63.59829113
_symmetry_Int_Tables_number   1
_chemical_formula_structural   TiAl
_chemical_formula_sum   'Ti16 Al16'
_cell_volume   531.25294696
_cell_formula_units_Z   16
loop_
 _symmetry_equiv_pos_site_id
 _symmetry_equiv_pos_as_xyz
  1  'x, y, z'
loop_
 _atom_site_type_symbol
 _atom_site_label
 _atom_site_symmetry_multiplicity
 _atom_site_fract_x
 _atom_site_fract_y
 _atom_site_fract_z
 _atom_site_occupancy
  Al  Al0  1  0.49797916  0.00186794  0.99294270  1
  Al  Al1  1  0.24589554  0.25195715  0.49696919  1
  Al  Al2  1  0.53928163  0.21340749  0.66293682  1
  Al  Al3  1  0.79736237  0.44965950  0.17385119  1
  Al  Al4  1  0.00161694  0.99949829  0.50105933  1
  Al  Al5  1  0.00235983  0.99642646  0.00296669  1
  Al  Al6  1  0.49797916  0.00186794  0.50316852  1
  Al  Al7  1  0.24961025  0.25026558  0.99967233  1
  Al  Al8  1  0.00176900  0.49687745  0.50633063  1
  Al  Al9  1  0.00176900  0.49687745  0.99856091  1
  Al  Al10  1  0.75157439  0.25241768  0.50156839  1
  Al  Al11  1  0.75157439  0.25241768  0.99758832  1
  Al  Al12  1  0.49626848  0.50498896  0.49563975  1
  Al  Al13  1  0.49551577  0.50147868  0.99701854  1
  Al  Al14  1  0.24691498  0.75003110  0.49862778  1
  Al  Al15  1  0.24691498  0.75003110  0.99825609  1
  Ti  Ti16  1  0.73908947  0.76898907  0.48505020  1
  Ti  Ti17  1  0.74767205  0.74565708  0.00100749  1
  Ti  Ti18  1  0.04912555  0.19989449  0.16627124  1
  Ti  Ti19  1  0.04912555  0.19989449  0.68295932  1
  Ti  Ti20  1  0.54745936  0.20634904  0.17055491  1
  Ti  Ti21  1  0.29207929  0.45738356  0.16172998  1
  Ti  Ti22  1  0.29207929  0.45738356  0.67296525  1
  Ti  Ti23  1  0.03683835  0.70467860  0.16607963  1
  Ti  Ti24  1  0.04294821  0.70445154  0.66924809  1
  Ti  Ti25  1  0.79211280  0.46258491  0.66476369  1
  Ti  Ti26  1  0.54204378  0.70736435  0.16713538  1
  Ti  Ti27  1  0.54204378  0.70736435  0.66754356  1
  Ti  Ti28  1  0.29514952  0.95366921  0.17073991  1
  Ti  Ti29  1  0.29383409  0.95860561  0.66761399  1
  Ti  Ti30  1  0.79034052  0.96449584  0.16315696  1
  Ti  Ti31  1  0.79034052  0.96449584  0.66268722  1
