# generated using pymatgen
data_Ti5V3
_symmetry_space_group_name_H-M   'P 1'
_cell_length_a   5.21608183
_cell_length_b   9.93995316
_cell_length_c   10.56917258
_cell_angle_alpha   111.87683456
_cell_angle_beta   95.49837478
_cell_angle_gamma   89.39179851
_symmetry_Int_Tables_number   1
_chemical_formula_structural   Ti5V3
_chemical_formula_sum   'Ti20 V12'
_cell_volume   505.99768841
_cell_formula_units_Z   4
loop_
 _symmetry_equiv_pos_site_id
 _symmetry_equiv_pos_as_xyz
  1  'x, y, z'
loop_
 _atom_site_type_symbol
 _atom_site_label
 _atom_site_symmetry_multiplicity
 _atom_site_fract_x
 _atom_site_fract_y
 _atom_site_fract_z
 _atom_site_occupancy
  Ti  Ti0  1  0.99241416  0.01072417  0.99752396  1
  Ti  Ti1  1  0.88055220  0.12772919  0.31442914  1
  Ti  Ti2  1  0.71789211  0.27745343  0.13453009  1
  Ti  Ti3  1  0.41258051  0.07497164  0.42719173  1
  Ti  Ti4  1  0.35033722  0.15975673  0.21057942  1
  Ti  Ti5  1  0.18634367  0.30531177  0.02704089  1
  Ti  Ti6  1  0.98218756  0.98013759  0.50970923  1
  Ti  Ti7  1  0.93740160  0.56483915  0.15629730  1
  Ti  Ti8  1  0.75228276  0.24566150  0.63264809  1
  Ti  Ti9  1  0.60698997  0.38543583  0.44121446  1
  Ti  Ti10  1  0.40832497  0.61478710  0.05047186  1
  Ti  Ti11  1  0.08493632  0.42516748  0.35427288  1
  Ti  Ti12  1  0.80449082  0.68620456  0.47442484  1
  Ti  Ti13  1  0.68380571  0.83188401  0.26314185  1
  Ti  Ti14  1  0.64349419  0.34534743  0.91859271  1
  Ti  Ti15  1  0.50711316  0.51122104  0.75162670  1
  Ti  Ti16  1  0.29729129  0.75221328  0.38635790  1
  Ti  Ti17  1  0.15416880  0.87435514  0.18163941  1
  Ti  Ti18  1  0.04758292  0.45535658  0.84152475  1
  Ti  Ti19  1  0.68432916  0.80699717  0.77814910  1
  V  V20  1  0.87778934  0.09717329  0.79258208  1
  V  V21  1  0.44578747  0.50921777  0.24557794  1
  V  V22  1  0.44232125  0.05960172  0.89765962  1
  V  V23  1  0.29500390  0.17817067  0.71573449  1
  V  V24  1  0.18682633  0.32423223  0.55484720  1
  V  V25  1  0.97188630  0.55783385  0.65109182  1
  V  V26  1  0.56248665  0.92041391  0.05969270  1
  V  V27  1  0.33519853  0.63078447  0.56765559  1
  V  V28  1  0.82531954  0.70952890  0.97952253  1
  V  V29  1  0.53871808  0.94906318  0.61121490  1
  V  V30  1  0.23946760  0.75331142  0.87378544  1
  V  V31  1  0.14467591  0.87511378  0.69926937  1
