# generated using pymatgen
data_Ti5Al3
_symmetry_space_group_name_H-M   'P 1'
_cell_length_a   5.61781132
_cell_length_b   4.66402880
_cell_length_c   10.53661622
_cell_angle_alpha   89.99998912
_cell_angle_beta   105.64857224
_cell_angle_gamma   89.99999902
_symmetry_Int_Tables_number   1
_chemical_formula_structural   Ti5Al3
_chemical_formula_sum   'Ti10 Al6'
_cell_volume   265.84357360
_cell_formula_units_Z   2
loop_
 _symmetry_equiv_pos_site_id
 _symmetry_equiv_pos_as_xyz
  1  'x, y, z'
loop_
 _atom_site_type_symbol
 _atom_site_label
 _atom_site_symmetry_multiplicity
 _atom_site_fract_x
 _atom_site_fract_y
 _atom_site_fract_z
 _atom_site_occupancy
  Al  Al0  1  0.55339356  -0.00000000  0.97917994  1
  Al  Al1  1  0.13400385  0.50000000  0.14413983  1
  Al  Al2  1  0.00362320  0.50000000  0.39458749  1
  Al  Al3  1  0.67698013  0.00000000  0.73360532  1
  Al  Al4  1  0.75393626  0.50000000  0.89011721  1
  Al  Al5  1  0.25981073  0.50000000  0.89040165  1
  Ti  Ti6  1  0.62530843  0.50000000  0.13397120  1
  Ti  Ti7  1  0.93382028  -0.00000000  0.23617203  1
  Ti  Ti8  1  0.06397710  -0.00000000  0.98495534  1
  Ti  Ti9  1  0.42691716  -0.00000000  0.22695594  1
  Ti  Ti10  1  0.50292910  0.50000000  0.38582513  1
  Ti  Ti11  1  0.81103146  0.00000000  0.49016376  1
  Ti  Ti12  1  0.88925810  0.50000000  0.65626158  1
  Ti  Ti13  1  0.30929737  0.00000000  0.48634585  1
  Ti  Ti14  1  0.37846690  0.50000000  0.63517096  1
  Ti  Ti15  1  0.17724631  -0.00000000  0.73214674  1
