# generated using pymatgen
data_Ti7Al
_symmetry_space_group_name_H-M   'P 1'
_cell_length_a   10.91668049
_cell_length_b   10.99188121
_cell_length_c   5.86366767
_cell_angle_alpha   74.34926933
_cell_angle_beta   105.30643701
_cell_angle_gamma   64.08857510
_symmetry_Int_Tables_number   1
_chemical_formula_structural   Ti7Al
_chemical_formula_sum   'Ti28 Al4'
_cell_volume   546.98373041
_cell_formula_units_Z   4
loop_
 _symmetry_equiv_pos_site_id
 _symmetry_equiv_pos_as_xyz
  1  'x, y, z'
loop_
 _atom_site_type_symbol
 _atom_site_label
 _atom_site_symmetry_multiplicity
 _atom_site_fract_x
 _atom_site_fract_y
 _atom_site_fract_z
 _atom_site_occupancy
  Al  Al0  1  0.49874415  0.00326968  0.99831179  1
  Al  Al1  1  0.24844461  0.24932860  0.50143973  1
  Al  Al2  1  0.53964965  0.20681558  0.67029974  1
  Al  Al3  1  0.79357967  0.45707468  0.16698506  1
  Ti  Ti4  1  0.00477495  0.99880928  0.50277163  1
  Ti  Ti5  1  0.00353813  0.99881412  0.00460675  1
  Ti  Ti6  1  0.50087788  0.00049977  0.49779329  1
  Ti  Ti7  1  0.24857094  0.24656951  0.99961168  1
  Ti  Ti8  1  0.99903472  0.50025055  0.49329197  1
  Ti  Ti9  1  0.99807535  0.50093933  0.99980345  1
  Ti  Ti10  1  0.74570552  0.25560616  0.49695933  1
  Ti  Ti11  1  0.74492817  0.25419505  0.99480141  1
  Ti  Ti12  1  0.49144956  0.49794746  0.49538934  1
  Ti  Ti13  1  0.49926126  0.50505376  0.00012806  1
  Ti  Ti14  1  0.24940665  0.74972327  0.50161701  1
  Ti  Ti15  1  0.25215153  0.74961672  0.99830316  1
  Ti  Ti16  1  0.74715370  0.75861840  0.49361532  1
  Ti  Ti17  1  0.74837261  0.75039494  0.99596886  1
  Ti  Ti18  1  0.04448239  0.20601847  0.17467502  1
  Ti  Ti19  1  0.03683671  0.20935486  0.66119231  1
  Ti  Ti20  1  0.54333129  0.21353171  0.16726582  1
  Ti  Ti21  1  0.29474038  0.45084811  0.17149781  1
  Ti  Ti22  1  0.29170396  0.45652125  0.67354211  1
  Ti  Ti23  1  0.03959963  0.70753131  0.16692144  1
  Ti  Ti24  1  0.04284748  0.70729693  0.66690728  1
  Ti  Ti25  1  0.78632090  0.46102244  0.66014028  1
  Ti  Ti26  1  0.54548375  0.70833325  0.16794468  1
  Ti  Ti27  1  0.54554146  0.70209794  0.66951679  1
  Ti  Ti28  1  0.29850669  0.94844080  0.17497274  1
  Ti  Ti29  1  0.29706815  0.95744746  0.66934634  1
  Ti  Ti30  1  0.79122673  0.96213823  0.15870353  1
  Ti  Ti31  1  0.79525947  0.95922238  0.67234029  1
