# generated using pymatgen
data_Ti5Al3
_symmetry_space_group_name_H-M   'P 1'
_cell_length_a   10.87730724
_cell_length_b   10.94840273
_cell_length_c   5.83148024
_cell_angle_alpha   74.55480690
_cell_angle_beta   105.54868939
_cell_angle_gamma   63.62236377
_symmetry_Int_Tables_number   1
_chemical_formula_structural   Ti5Al3
_chemical_formula_sum   'Ti20 Al12'
_cell_volume   536.31386499
_cell_formula_units_Z   4
loop_
 _symmetry_equiv_pos_site_id
 _symmetry_equiv_pos_as_xyz
  1  'x, y, z'
loop_
 _atom_site_type_symbol
 _atom_site_label
 _atom_site_symmetry_multiplicity
 _atom_site_fract_x
 _atom_site_fract_y
 _atom_site_fract_z
 _atom_site_occupancy
  Al  Al0  1  0.50071676  0.00297638  0.99680165  1
  Al  Al1  1  0.24298277  0.25439432  0.49429423  1
  Al  Al2  1  0.53836155  0.20671398  0.66582354  1
  Al  Al3  1  0.80769757  0.44474506  0.18147601  1
  Al  Al4  1  0.00016158  0.00302883  0.49856637  1
  Al  Al5  1  0.99955504  0.00065044  0.99945231  1
  Al  Al6  1  0.50071676  0.00297638  0.50093873  1
  Al  Al7  1  0.25339195  0.24904793  0.00217201  1
  Al  Al8  1  0.99906344  0.49588821  0.50957196  1
  Al  Al9  1  0.99906344  0.49588821  0.99360327  1
  Al  Al10  1  0.75288481  0.25102828  0.50396007  1
  Al  Al11  1  0.75288481  0.25102828  0.99789646  1
  Ti  Ti12  1  0.49131264  0.50058499  0.49536383  1
  Ti  Ti13  1  0.49921019  0.50463240  0.99728889  1
  Ti  Ti14  1  0.24067606  0.75605850  0.49288120  1
  Ti  Ti15  1  0.24067606  0.75605850  0.99173636  1
  Ti  Ti16  1  0.73953942  0.76574824  0.48689560  1
  Ti  Ti17  1  0.74875558  0.74781468  0.00047046  1
  Ti  Ti18  1  0.05529125  0.19473481  0.17411899  1
  Ti  Ti19  1  0.05529125  0.19473481  0.68643694  1
  Ti  Ti20  1  0.54955886  0.21353254  0.16801291  1
  Ti  Ti21  1  0.29144999  0.45840459  0.16260193  1
  Ti  Ti22  1  0.29144999  0.45840459  0.67044297  1
  Ti  Ti23  1  0.03359070  0.70485985  0.16436518  1
  Ti  Ti24  1  0.03233575  0.71305077  0.65964224  1
  Ti  Ti25  1  0.78273603  0.46159796  0.66056878  1
  Ti  Ti26  1  0.54146748  0.70618563  0.17054668  1
  Ti  Ti27  1  0.54146748  0.70618563  0.66473468  1
  Ti  Ti28  1  0.29391166  0.95792019  0.16799549  1
  Ti  Ti29  1  0.29736811  0.95726083  0.67005339  1
  Ti  Ti30  1  0.79654950  0.95859809  0.16746127  1
  Ti  Ti31  1  0.79654950  0.95859809  0.67048963  1
