# generated using pymatgen
data_Ti3Al
_symmetry_space_group_name_H-M   'P 1'
_cell_length_a   10.93282842
_cell_length_b   10.96507700
_cell_length_c   5.87291734
_cell_angle_alpha   74.46654427
_cell_angle_beta   105.58043688
_cell_angle_gamma   63.33306214
_symmetry_Int_Tables_number   1
_chemical_formula_structural   Ti3Al
_chemical_formula_sum   'Ti24 Al8'
_cell_volume   540.85452173
_cell_formula_units_Z   8
loop_
 _symmetry_equiv_pos_site_id
 _symmetry_equiv_pos_as_xyz
  1  'x, y, z'
loop_
 _atom_site_type_symbol
 _atom_site_label
 _atom_site_symmetry_multiplicity
 _atom_site_fract_x
 _atom_site_fract_y
 _atom_site_fract_z
 _atom_site_occupancy
  Al  Al0  1  0.50003229  0.00276472  0.99801652  1
  Al  Al1  1  0.24887328  0.24664615  0.50111356  1
  Al  Al2  1  0.54128311  0.20410638  0.66858811  1
  Al  Al3  1  0.79632394  0.45135555  0.17248394  1
  Al  Al4  1  0.00336024  0.00345801  0.49995111  1
  Al  Al5  1  0.00252640  0.00313150  0.99969745  1
  Al  Al6  1  0.50003229  0.00276472  0.49925105  1
  Al  Al7  1  0.25263055  0.24791163  0.00235946  1
  Ti  Ti8  1  0.99456253  0.49999885  0.49897251  1
  Ti  Ti9  1  0.99456253  0.49999885  0.99559117  1
  Ti  Ti10  1  0.74460419  0.25241812  0.49916297  1
  Ti  Ti11  1  0.74460419  0.25241812  0.99302309  1
  Ti  Ti12  1  0.48465582  0.50215373  0.49125105  1
  Ti  Ti13  1  0.49218972  0.50996593  0.99111189  1
  Ti  Ti14  1  0.24228019  0.75782646  0.49109904  1
  Ti  Ti15  1  0.24228019  0.75782646  0.99335468  1
  Ti  Ti16  1  0.74337837  0.76453137  0.48942350  1
  Ti  Ti17  1  0.74762469  0.75100045  0.99831211  1
  Ti  Ti18  1  0.05112284  0.20194116  0.17164133  1
  Ti  Ti19  1  0.05112284  0.20194116  0.67753986  1
  Ti  Ti20  1  0.54791146  0.21030687  0.16880204  1
  Ti  Ti21  1  0.28893179  0.45794604  0.16050734  1
  Ti  Ti22  1  0.28893179  0.45794604  0.67047791  1
  Ti  Ti23  1  0.03973102  0.70145541  0.16913756  1
  Ti  Ti24  1  0.04011159  0.70683340  0.66663884  1
  Ti  Ti25  1  0.78158356  0.46115290  0.66021508  1
  Ti  Ti26  1  0.54493951  0.70373857  0.17483560  1
  Ti  Ti27  1  0.54493951  0.70373857  0.66636484  1
  Ti  Ti28  1  0.30190779  0.95279113  0.17455808  1
  Ti  Ti29  1  0.30818936  0.94631935  0.68093476  1
  Ti  Ti30  1  0.80072021  0.95847219  0.17311587  1
  Ti  Ti31  1  0.80072021  0.95847219  0.66913165  1
