# generated using pymatgen
data_HfZrTaTiC4
_symmetry_space_group_name_H-M   'P 1'
_cell_length_a   10.16914830
_cell_length_b   10.16891661
_cell_length_c   7.87261897
_cell_angle_alpha   104.88654868
_cell_angle_beta   104.94208097
_cell_angle_gamma   78.48141741
_symmetry_Int_Tables_number   1
_chemical_formula_structural   HfZrTaTiC4
_chemical_formula_sum   'Hf8 Zr8 Ta8 Ti8 C32'
_cell_volume   752.37112264
_cell_formula_units_Z   8
loop_
 _symmetry_equiv_pos_site_id
 _symmetry_equiv_pos_as_xyz
  1  'x, y, z'
loop_
 _atom_site_type_symbol
 _atom_site_label
 _atom_site_symmetry_multiplicity
 _atom_site_fract_x
 _atom_site_fract_y
 _atom_site_fract_z
 _atom_site_occupancy
  C  C0  1  0.74695443  0.25003682  0.49293320  1
  C  C1  1  0.05669177  0.31417206  0.61397314  1
  C  C2  1  0.24630703  0.25146705  0.00414539  1
  C  C3  1  0.56938579  0.31117457  0.13074349  1
  C  C4  1  0.87384934  0.37699604  0.25140366  1
  C  C5  1  0.17926612  0.44021629  0.36846402  1
  C  C6  1  0.99706614  0.50454336  0.00735741  1
  C  C7  1  0.38018258  0.37340154  0.74962874  1
  C  C8  1  0.68829524  0.43481101  0.87984007  1
  C  C9  1  0.50773656  0.49412679  0.50156237  1
  C  C10  1  0.81428671  0.56642716  0.61904886  1
  C  C11  1  0.11887963  0.63029660  0.74735777  1
  C  C12  1  0.30791673  0.56656462  0.12602170  1
  C  C13  1  0.63598146  0.62124743  0.25732562  1
  C  C14  1  0.93576248  0.68754608  0.37406102  1
  C  C15  1  0.75815640  0.74732041  0.00393816  1
  C  C16  1  0.05882393  0.80706802  0.12098601  1
  C  C17  1  0.43407324  0.69136202  0.87591433  1
  C  C18  1  0.24451272  0.75121294  0.50095743  1
  C  C19  1  0.56334897  0.81659225  0.62518283  1
  C  C20  1  0.87609210  0.86898536  0.74521413  1
  C  C21  1  0.18854687  0.93047106  0.87055783  1
  C  C22  1  0.37473815  0.87427501  0.24769629  1
  C  C23  1  0.68986746  0.93778206  0.37659314  1
  C  C24  1  0.99443216  0.99730147  0.49305253  1
  C  C25  1  0.50149041  0.00054355  0.00117919  1
  C  C26  1  0.81196878  0.06441797  0.13040349  1
  C  C27  1  0.11810257  0.12954034  0.24672727  1
  C  C28  1  0.31944735  0.05668860  0.62578980  1
  C  C29  1  0.62532386  0.12813376  0.75019707  1
  C  C30  1  0.93477361  0.19019786  0.88166278  1
  C  C31  1  0.44616749  0.18479661  0.37886340  1
  Hf  Hf32  1  0.43924091  0.18648494  0.87458157  1
  Hf  Hf33  1  0.37812582  0.37500432  0.25169655  1
  Hf  Hf34  1  0.50285556  0.49969598  0.00346592  1
  Hf  Hf35  1  0.62648486  0.62478653  0.75105252  1
  Hf  Hf36  1  0.68822287  0.93706769  0.87529395  1
  Hf  Hf37  1  0.99778727  0.99795378  0.00023650  1
  Hf  Hf38  1  0.31351666  0.06109812  0.12449392  1
  Hf  Hf39  1  0.81007898  0.06169702  0.62416909  1
  Ta  Ta40  1  0.62647371  0.12394356  0.25321366  1
  Ta  Ta41  1  0.93414902  0.18980346  0.37409760  1
  Ta  Ta42  1  0.74861153  0.25319917  0.00161447  1
  Ta  Ta43  1  0.05916053  0.31630922  0.12582230  1
  Ta  Ta44  1  0.12078657  0.62604623  0.24997204  1
  Ta  Ta45  1  0.93524323  0.68670254  0.87341166  1
  Ta  Ta46  1  0.25194538  0.75023319  0.99834259  1
  Ta  Ta47  1  0.05937481  0.81036199  0.62048575  1
  Ti  Ti48  1  0.56449029  0.31132430  0.62376154  1
  Ti  Ti49  1  0.69096830  0.43970363  0.37651392  1
  Ti  Ti50  1  0.99455705  0.50240663  0.49546245  1
  Ti  Ti51  1  0.81378144  0.56345888  0.13252603  1
  Ti  Ti52  1  0.75137192  0.74899571  0.49826042  1
  Ti  Ti53  1  0.37733180  0.87499169  0.74909282  1
  Ti  Ti54  1  0.87383462  0.87321450  0.25140617  1
  Ti  Ti55  1  0.50289463  0.99885110  0.50265761  1
  Zr  Zr56  1  0.12446881  0.12268700  0.74808004  1
  Zr  Zr57  1  0.25253549  0.24924150  0.49820048  1
  Zr  Zr58  1  0.87161878  0.37743567  0.74780009  1
  Zr  Zr59  1  0.18492325  0.43916813  0.87110142  1
  Zr  Zr60  1  0.31185301  0.56251073  0.62340369  1
  Zr  Zr61  1  0.44094261  0.68812601  0.37900833  1
  Zr  Zr62  1  0.56743481  0.81125511  0.12858384  1
  Zr  Zr63  1  0.18650741  0.93652503  0.37340886  1
