# generated using pymatgen
data_Ti22Al2V
_symmetry_space_group_name_H-M   'P 1'
_cell_length_a   8.99787427
_cell_length_b   9.87714154
_cell_length_c   11.09360227
_cell_angle_alpha   78.57546773
_cell_angle_beta   87.48889359
_cell_angle_gamma   61.90661470
_symmetry_Int_Tables_number   1
_chemical_formula_structural   Ti22Al2V
_chemical_formula_sum   'Ti44 Al4 V2'
_cell_volume   851.13528591
_cell_formula_units_Z   2
loop_
 _symmetry_equiv_pos_site_id
 _symmetry_equiv_pos_as_xyz
  1  'x, y, z'
loop_
 _atom_site_type_symbol
 _atom_site_label
 _atom_site_symmetry_multiplicity
 _atom_site_fract_x
 _atom_site_fract_y
 _atom_site_fract_z
 _atom_site_occupancy
  Al  Al0  1  0.88028690  0.60168790  0.27966205  1
  Al  Al1  1  0.36056515  0.86591378  0.99642164  1
  Al  Al2  1  0.20058904  0.66365344  0.03697122  1
  Al  Al3  1  0.76035090  0.86514875  0.39220417  1
  Ti  Ti4  1  0.03353434  0.80063520  0.23781205  1
  Ti  Ti5  1  0.07765868  0.59994632  0.47824104  1
  Ti  Ti6  1  0.24024370  0.79893524  0.43886658  1
  Ti  Ti7  1  0.12104188  0.39781677  0.72020492  1
  Ti  Ti8  1  0.27628353  0.60290629  0.67374600  1
  Ti  Ti9  1  0.43988132  0.79834231  0.63951817  1
  Ti  Ti10  1  0.16020067  0.19755236  0.95775565  1
  Ti  Ti11  1  0.31890989  0.40334855  0.92269953  1
  Ti  Ti12  1  0.47688357  0.60125974  0.88430335  1
  Ti  Ti13  1  0.63913844  0.79917513  0.84275549  1
  Ti  Ti14  1  0.00532774  0.99577895  0.00172761  1
  Ti  Ti15  1  0.19733447  0.01100446  0.20285559  1
  Ti  Ti16  1  0.35213181  0.20228700  0.16606443  1
  Ti  Ti17  1  0.52050419  0.39615306  0.12127747  1
  Ti  Ti18  1  0.68189570  0.60269188  0.08219150  1
  Ti  Ti19  1  0.84868831  0.80193101  0.03625042  1
  Ti  Ti20  1  0.40408385  0.99772600  0.39671682  1
  Ti  Ti21  1  0.56218505  0.19904367  0.35954527  1
  Ti  Ti22  1  0.72393319  0.40390216  0.31730414  1
  Ti  Ti23  1  0.60537760  0.99827793  0.59674309  1
  Ti  Ti24  1  0.76049584  0.20088029  0.56235789  1
  Ti  Ti25  1  0.92409775  0.39855712  0.51700854  1
  Ti  Ti26  1  0.79724518  0.00168007  0.79321814  1
  Ti  Ti27  1  0.95710478  0.20586209  0.75865874  1
  Ti  Ti28  1  0.39534157  0.66885658  0.22867536  1
  Ti  Ti29  1  0.43967877  0.46624811  0.47073947  1
  Ti  Ti30  1  0.60364372  0.66782101  0.43452181  1
  Ti  Ti31  1  0.47866932  0.26595791  0.71459963  1
  Ti  Ti32  1  0.63989168  0.46825215  0.67503385  1
  Ti  Ti33  1  0.80150052  0.66909235  0.63373912  1
  Ti  Ti34  1  0.51954175  0.06682664  0.95581045  1
  Ti  Ti35  1  0.67894240  0.26817652  0.91332493  1
  Ti  Ti36  1  0.83823643  0.46960230  0.87693644  1
  Ti  Ti37  1  0.00239359  0.66901112  0.83232930  1
  Ti  Ti38  1  0.56249996  0.86947402  0.19082376  1
  Ti  Ti39  1  0.71977530  0.06718811  0.15140994  1
  Ti  Ti40  1  0.88286106  0.26250477  0.11122943  1
  Ti  Ti41  1  0.03995435  0.46052538  0.08006649  1
  Ti  Ti42  1  0.91991576  0.06335369  0.35714862  1
  Ti  Ti43  1  0.23155689  0.46726797  0.27513952  1
  Ti  Ti44  1  0.12006141  0.06417714  0.55094677  1
  Ti  Ti45  1  0.28622603  0.25897591  0.51252028  1
  Ti  Ti46  1  0.15700142  0.86649995  0.79334458  1
  Ti  Ti47  1  0.32037528  0.06068275  0.75527377  1
  V  V48  1  0.08084681  0.26795946  0.32016232  1
  V  V49  1  0.95511352  0.86611871  0.58647363  1
