# generated using pymatgen
data_Ti21Al3V
_symmetry_space_group_name_H-M   'P 1'
_cell_length_a   7.45508852
_cell_length_b   8.97462992
_cell_length_c   13.44635208
_cell_angle_alpha   73.83552211
_cell_angle_beta   82.41743083
_cell_angle_gamma   79.45924607
_symmetry_Int_Tables_number   1
_chemical_formula_structural   Ti21Al3V
_chemical_formula_sum   'Ti42 Al6 V2'
_cell_volume   846.36941133
_cell_formula_units_Z   2
loop_
 _symmetry_equiv_pos_site_id
 _symmetry_equiv_pos_as_xyz
  1  'x, y, z'
loop_
 _atom_site_type_symbol
 _atom_site_label
 _atom_site_symmetry_multiplicity
 _atom_site_fract_x
 _atom_site_fract_y
 _atom_site_fract_z
 _atom_site_occupancy
  Al  Al0  1  0.24169777  0.59792995  0.36136027  1
  Al  Al1  1  0.55471812  0.40096715  0.84131193  1
  Al  Al2  1  0.48078972  0.20061862  0.72063735  1
  Al  Al3  1  0.58162527  0.53178294  0.45295931  1
  Al  Al4  1  0.37564961  0.52706789  0.65783738  1
  Al  Al5  1  0.26160323  0.73377675  0.96927101  1
  Ti  Ti6  1  0.72446749  0.80487528  0.07989566  1
  Ti  Ti7  1  0.51681671  0.79731799  0.27997839  1
  Ti  Ti8  1  0.31291158  0.79220201  0.48244512  1
  Ti  Ti9  1  0.11776406  0.78932666  0.68099515  1
  Ti  Ti10  1  0.43867155  0.60823435  0.15457984  1
  Ti  Ti11  1  0.03618990  0.59922483  0.56378335  1
  Ti  Ti12  1  0.36288309  0.40425430  0.03812927  1
  Ti  Ti13  1  0.16842686  0.39274686  0.24182933  1
  Ti  Ti14  1  0.07861279  0.20372958  0.11892049  1
  Ti  Ti15  1  0.00519348  0.00073306  0.99682241  1
  Ti  Ti16  1  0.92771305  0.80344473  0.87687947  1
  Ti  Ti17  1  0.82893007  0.60300198  0.76211174  1
  Ti  Ti18  1  0.64146986  0.59782977  0.96255314  1
  Ti  Ti19  1  0.96035354  0.40103795  0.43800551  1
  Ti  Ti20  1  0.75632019  0.40158501  0.64124972  1
  Ti  Ti21  1  0.88380996  0.19488571  0.32035800  1
  Ti  Ti22  1  0.68332021  0.20044124  0.51848906  1
  Ti  Ti23  1  0.28139023  0.21164934  0.91774531  1
  Ti  Ti24  1  0.80533406  0.99452835  0.20128390  1
  Ti  Ti25  1  0.59975530  0.00415407  0.39527822  1
  Ti  Ti26  1  0.39700932  0.00309595  0.60093342  1
  Ti  Ti27  1  0.20462628  0.00594918  0.79887666  1
  Ti  Ti28  1  0.78203958  0.52962842  0.24902894  1
  Ti  Ti29  1  0.50743747  0.33769161  0.33480668  1
  Ti  Ti30  1  0.30552784  0.33597866  0.53529092  1
  Ti  Ti31  1  0.10117843  0.33918548  0.73452050  1
  Ti  Ti32  1  0.22115312  0.12800762  0.41323042  1
  Ti  Ti33  1  0.15000694  0.92918428  0.29274883  1
  Ti  Ti34  1  0.06676065  0.72852635  0.17383559  1
  Ti  Ti35  1  0.98852251  0.53491162  0.05268881  1
  Ti  Ti36  1  0.89647314  0.33477960  0.93099855  1
  Ti  Ti37  1  0.68922458  0.32897708  0.13948773  1
  Ti  Ti38  1  0.01893745  0.13640145  0.61261123  1
  Ti  Ti39  1  0.81478644  0.13582131  0.81409940  1
  Ti  Ti40  1  0.62508422  0.13870470  0.01860229  1
  Ti  Ti41  1  0.93929228  0.93182294  0.49504479  1
  Ti  Ti42  1  0.73474375  0.93615519  0.69547960  1
  Ti  Ti43  1  0.54057789  0.92456820  0.89317863  1
  Ti  Ti44  1  0.34463187  0.94274776  0.08922518  1
  Ti  Ti45  1  0.86047627  0.73157973  0.37485650  1
  Ti  Ti46  1  0.65348391  0.73598068  0.57145716  1
  Ti  Ti47  1  0.44473205  0.72428363  0.77351016  1
  V  V48  1  0.16376535  0.53232235  0.85347957  1
  V  V49  1  0.42310995  0.12968483  0.21063409  1
