# generated using pymatgen
data_Ti42Al5V3
_symmetry_space_group_name_H-M   'P 1'
_cell_length_a   6.83781034
_cell_length_b   11.04537657
_cell_length_c   11.46479145
_cell_angle_alpha   91.56200467
_cell_angle_beta   101.99542198
_cell_angle_gamma   93.08176195
_symmetry_Int_Tables_number   1
_chemical_formula_structural   Ti42Al5V3
_chemical_formula_sum   'Ti42 Al5 V3'
_cell_volume   845.10475455
_cell_formula_units_Z   1
loop_
 _symmetry_equiv_pos_site_id
 _symmetry_equiv_pos_as_xyz
  1  'x, y, z'
loop_
 _atom_site_type_symbol
 _atom_site_label
 _atom_site_symmetry_multiplicity
 _atom_site_fract_x
 _atom_site_fract_y
 _atom_site_fract_z
 _atom_site_occupancy
  Al  Al0  1  0.96205332  0.20268206  0.83801232  1
  Al  Al1  1  0.20305971  0.99617759  0.79963251  1
  Al  Al2  1  0.53490122  0.16479042  0.80042051  1
  Al  Al3  1  0.45140213  0.56750343  0.47970628  1
  Al  Al4  1  0.04835372  0.56797359  0.87775818  1
  Ti  Ti5  1  0.92542976  0.40771409  0.67820092  1
  Ti  Ti6  1  0.72090030  0.40052497  0.87555756  1
  Ti  Ti7  1  0.67328129  0.59903319  0.71660226  1
  Ti  Ti8  1  0.46722670  0.60709512  0.91653480  1
  Ti  Ti9  1  0.84032639  0.80075099  0.35709112  1
  Ti  Ti10  1  0.64816998  0.79533468  0.55877996  1
  Ti  Ti11  1  0.44539572  0.79512564  0.75670481  1
  Ti  Ti12  1  0.23751772  0.80248402  0.96282426  1
  Ti  Ti13  1  0.80177497  0.99889513  0.20013642  1
  Ti  Ti14  1  0.60294890  0.99902589  0.40436257  1
  Ti  Ti15  1  0.40629991  0.99559574  0.60699034  1
  Ti  Ti16  1  0.76533338  0.19476143  0.03482654  1
  Ti  Ti17  1  0.56461067  0.20039218  0.24041730  1
  Ti  Ti18  1  0.35583449  0.19697090  0.43964714  1
  Ti  Ti19  1  0.15869066  0.19690091  0.64665734  1
  Ti  Ti20  1  0.52076731  0.39896271  0.08291832  1
  Ti  Ti21  1  0.31407598  0.40272506  0.28108100  1
  Ti  Ti22  1  0.11494409  0.40920221  0.48257775  1
  Ti  Ti23  1  0.27353180  0.60167339  0.11193682  1
  Ti  Ti24  1  0.08014997  0.59813166  0.32177553  1
  Ti  Ti25  1  0.03456852  0.80149419  0.16367653  1
  Ti  Ti26  1  0.01136620  0.00041678  0.00374974  1
  Ti  Ti27  1  0.48874011  0.37035080  0.63830994  1
  Ti  Ti28  1  0.29659780  0.37599128  0.84155158  1
  Ti  Ti29  1  0.41828241  0.76328544  0.31816984  1
  Ti  Ti30  1  0.21299503  0.75693979  0.52034907  1
  Ti  Ti31  1  0.01795765  0.75699176  0.71572934  1
  Ti  Ti32  1  0.81129425  0.76245298  0.92438329  1
  Ti  Ti33  1  0.38272084  0.96409527  0.16417174  1
  Ti  Ti34  1  0.17635487  0.96354338  0.36270003  1
  Ti  Ti35  1  0.97979600  0.96540040  0.56106516  1
  Ti  Ti36  1  0.78106310  0.96440579  0.76233656  1
  Ti  Ti37  1  0.33969344  0.16975162  0.99525603  1
  Ti  Ti38  1  0.13855210  0.16754355  0.20258495  1
  Ti  Ti39  1  0.93467253  0.16943665  0.40499301  1
  Ti  Ti40  1  0.72444137  0.17219813  0.60124077  1
  Ti  Ti41  1  0.09239338  0.36512467  0.03600437  1
  Ti  Ti42  1  0.89822676  0.36652815  0.23980985  1
  Ti  Ti43  1  0.68857594  0.37210682  0.44072304  1
  Ti  Ti44  1  0.84902463  0.57023021  0.07991280  1
  Ti  Ti45  1  0.64935434  0.56920746  0.28135354  1
  Ti  Ti46  1  0.57417653  0.96190740  0.95853789  1
  V  V47  1  0.86021294  0.59989164  0.51816640  1
  V  V48  1  0.24793027  0.57170165  0.67534019  1
  V  V49  1  0.60736089  0.76524215  0.11873479  1
