# generated using pymatgen
data_Ti44Al5V
_symmetry_space_group_name_H-M   'P 1'
_cell_length_a   6.85948499
_cell_length_b   11.48689066
_cell_length_c   12.03374383
_cell_angle_alpha   105.73974316
_cell_angle_beta   102.64852434
_cell_angle_gamma   102.28564459
_symmetry_Int_Tables_number   1
_chemical_formula_structural   Ti44Al5V
_chemical_formula_sum   'Ti44 Al5 V1'
_cell_volume   852.26784693
_cell_formula_units_Z   1
loop_
 _symmetry_equiv_pos_site_id
 _symmetry_equiv_pos_as_xyz
  1  'x, y, z'
loop_
 _atom_site_type_symbol
 _atom_site_label
 _atom_site_symmetry_multiplicity
 _atom_site_fract_x
 _atom_site_fract_y
 _atom_site_fract_z
 _atom_site_occupancy
  Al  Al0  1  0.96622824  0.43870696  0.20139098  1
  Al  Al1  1  0.72271458  0.08107031  0.40030036  1
  Al  Al2  1  0.06590991  0.69199506  0.62998999  1
  Al  Al3  1  0.11182737  0.25364299  0.43419840  1
  Al  Al4  1  0.86628821  0.89078036  0.62932030  1
  Ti  Ti5  1  0.19917458  0.79868776  0.00111211  1
  Ti  Ti6  1  0.56353885  0.84435682  0.20217921  1
  Ti  Ti7  1  0.39866889  0.59962428  0.00201590  1
  Ti  Ti8  1  0.92276136  0.87980154  0.39745569  1
  Ti  Ti9  1  0.76713265  0.63832850  0.20405367  1
  Ti  Ti10  1  0.60656031  0.39957671  0.00228422  1
  Ti  Ti11  1  0.80584610  0.20402758  0.00219195  1
  Ti  Ti12  1  0.26927142  0.91758010  0.59493296  1
  Ti  Ti13  1  0.12706236  0.67207319  0.39586858  1
  Ti  Ti14  1  0.64320510  0.95943793  0.79723215  1
  Ti  Ti15  1  0.46669345  0.72209286  0.59823356  1
  Ti  Ti16  1  0.16495522  0.24476320  0.20804254  1
  Ti  Ti17  1  0.00361789  0.00157287  0.00424479  1
  Ti  Ti18  1  0.83508707  0.76007834  0.79605904  1
  Ti  Ti19  1  0.68069073  0.51543692  0.60065853  1
  Ti  Ti20  1  0.51687333  0.28559168  0.40381644  1
  Ti  Ti21  1  0.36909490  0.03982434  0.20041031  1
  Ti  Ti22  1  0.86960424  0.31404129  0.59367535  1
  Ti  Ti23  1  0.03680990  0.56191933  0.79893188  1
  Ti  Ti24  1  0.23875272  0.36073119  0.80341677  1
  Ti  Ti25  1  0.07240712  0.11241836  0.59572739  1
  Ti  Ti26  1  0.44264033  0.15922072  0.80122424  1
  Ti  Ti27  1  0.99630727  0.57058130  0.03490432  1
  Ti  Ti28  1  0.35898139  0.61141787  0.23561490  1
  Ti  Ti29  1  0.19752823  0.37419715  0.03650060  1
  Ti  Ti30  1  0.70673916  0.65421722  0.43770689  1
  Ti  Ti31  1  0.56470317  0.41613107  0.23914877  1
  Ti  Ti32  1  0.39315407  0.17409389  0.03401349  1
  Ti  Ti33  1  0.75981815  0.21896857  0.23821530  1
  Ti  Ti34  1  0.59306222  0.97410128  0.02976642  1
  Ti  Ti35  1  0.92311454  0.45715654  0.43528659  1
  Ti  Ti36  1  0.42899163  0.73557125  0.83069977  1
  Ti  Ti37  1  0.26903553  0.49024882  0.62679484  1
  Ti  Ti38  1  0.95882145  0.01823255  0.23739201  1
  Ti  Ti39  1  0.79203677  0.77324493  0.03375878  1
  Ti  Ti40  1  0.63510544  0.53750857  0.83447193  1
  Ti  Ti41  1  0.46569142  0.29518295  0.63555038  1
  Ti  Ti42  1  0.31750003  0.05546106  0.43317985  1
  Ti  Ti43  1  0.15329478  0.81388334  0.23296091  1
  Ti  Ti44  1  0.66781735  0.09235072  0.62848439  1
  Ti  Ti45  1  0.51066010  0.85884940  0.43623635  1
  Ti  Ti46  1  0.83141987  0.33331521  0.82860080  1
  Ti  Ti47  1  0.03176513  0.12869224  0.83016363  1
  Ti  Ti48  1  0.22832187  0.93019398  0.82933028  1
  V  V49  1  0.31604260  0.47234990  0.39558148  1
