# generated using pymatgen
data_HfN
_symmetry_space_group_name_H-M   'P 1'
_cell_length_a   6.92294847
_cell_length_b   6.92294847
_cell_length_c   5.68414879
_cell_angle_alpha   90.00000000
_cell_angle_beta   90.00000000
_cell_angle_gamma   119.99999994
_symmetry_Int_Tables_number   1
_chemical_formula_structural   HfN
_chemical_formula_sum   'Hf8 N8'
_cell_volume   235.92733814
_cell_formula_units_Z   8
loop_
 _symmetry_equiv_pos_site_id
 _symmetry_equiv_pos_as_xyz
  1  'x, y, z'
loop_
 _atom_site_type_symbol
 _atom_site_label
 _atom_site_symmetry_multiplicity
 _atom_site_fract_x
 _atom_site_fract_y
 _atom_site_fract_z
 _atom_site_occupancy
  Hf  Hf0  1  0.16666667  0.33333333  0.50443515  1
  Hf  Hf1  1  0.33333333  0.16666667  0.00443515  1
  Hf  Hf2  1  0.16666667  0.83333333  0.50443515  1
  Hf  Hf3  1  0.33333333  0.66666667  0.00443515  1
  Hf  Hf4  1  0.66666667  0.33333333  0.50443515  1
  Hf  Hf5  1  0.83333333  0.16666667  0.00443515  1
  Hf  Hf6  1  0.66666667  0.83333333  0.50443515  1
  Hf  Hf7  1  0.83333333  0.66666667  0.00443515  1
  N  N8  1  0.16666667  0.33333333  0.87756485  1
  N  N9  1  0.33333333  0.16666667  0.37756485  1
  N  N10  1  0.16666667  0.83333333  0.87756485  1
  N  N11  1  0.33333333  0.66666667  0.37756485  1
  N  N12  1  0.66666667  0.33333333  0.87756485  1
  N  N13  1  0.83333333  0.16666667  0.37756485  1
  N  N14  1  0.66666667  0.83333333  0.87756485  1
  N  N15  1  0.83333333  0.66666667  0.37756485  1
