# generated using pymatgen
data_MnAl26N27
_symmetry_space_group_name_H-M   'P 1'
_cell_length_a   8.63106585
_cell_length_b   8.63106585
_cell_length_c   8.63106585
_cell_angle_alpha   60.00000000
_cell_angle_beta   60.00000000
_cell_angle_gamma   60.00000000
_symmetry_Int_Tables_number   1
_chemical_formula_structural   MnAl26N27
_chemical_formula_sum   'Mn1 Al26 N27'
_cell_volume   454.65114795
_cell_formula_units_Z   1
loop_
 _symmetry_equiv_pos_site_id
 _symmetry_equiv_pos_as_xyz
  1  'x, y, z'
loop_
 _atom_site_type_symbol
 _atom_site_label
 _atom_site_symmetry_multiplicity
 _atom_site_fract_x
 _atom_site_fract_y
 _atom_site_fract_z
 _atom_site_occupancy
  Al  Al0  1  0.83384038  0.16615962  0.16615962  1
  Al  Al1  1  0.16615962  0.83384038  0.83384038  1
  Al  Al2  1  0.16615962  0.16615962  0.83384038  1
  Al  Al3  1  0.83384038  0.83384038  0.16615962  1
  Al  Al4  1  0.16615962  0.83384038  0.16615962  1
  Al  Al5  1  0.83384038  0.16615962  0.83384038  1
  Al  Al6  1  0.83336058  0.83336058  0.83336058  1
  Al  Al7  1  0.49991824  0.83336058  0.83336058  1
  Al  Al8  1  0.83336058  0.49991824  0.83336058  1
  Al  Al9  1  0.83336058  0.83336058  0.49991824  1
  Al  Al10  1  0.16663942  0.16663942  0.16663942  1
  Al  Al11  1  0.50008176  0.16663942  0.16663942  1
  Al  Al12  1  0.16663942  0.50008176  0.16663942  1
  Al  Al13  1  0.16663942  0.16663942  0.50008176  1
  Al  Al14  1  0.16735156  0.50000000  0.50000000  1
  Al  Al15  1  0.83264844  0.50000000  0.50000000  1
  Al  Al16  1  0.50000000  0.83264844  0.16735156  1
  Al  Al17  1  0.50000000  0.16735156  0.83264844  1
  Al  Al18  1  0.50000000  0.50000000  0.16735156  1
  Al  Al19  1  0.83264844  0.16735156  0.50000000  1
  Al  Al20  1  0.16735156  0.83264844  0.50000000  1
  Al  Al21  1  0.50000000  0.50000000  0.83264844  1
  Al  Al22  1  0.50000000  0.16735156  0.50000000  1
  Al  Al23  1  0.83264844  0.50000000  0.16735156  1
  Al  Al24  1  0.50000000  0.83264844  0.50000000  1
  Al  Al25  1  0.16735156  0.50000000  0.83264844  1
  N  N26  1  0.66659578  0.66659578  0.66659578  1
  N  N27  1  0.00021267  0.66659578  0.66659578  1
  N  N28  1  0.66659578  0.00021267  0.66659578  1
  N  N29  1  0.66659578  0.66659578  0.00021267  1
  N  N30  1  0.33340422  0.33340422  0.33340422  1
  N  N31  1  -0.00021267  0.33340422  0.33340422  1
  N  N32  1  0.33340422  -0.00021267  0.33340422  1
  N  N33  1  0.33340422  0.33340422  -0.00021267  1
  N  N34  1  0.66802616  0.33197384  0.33197384  1
  N  N35  1  0.33197384  0.66802616  0.66802616  1
  N  N36  1  0.33197384  0.33197384  0.66802616  1
  N  N37  1  0.66802616  0.66802616  0.33197384  1
  N  N38  1  0.33197384  0.66802616  0.33197384  1
  N  N39  1  0.66802616  0.33197384  0.66802616  1
  N  N40  1  0.66679954  -0.00000000  0.00000000  1
  N  N41  1  0.33320046  0.00000000  -0.00000000  1
  N  N42  1  -0.00000000  0.33320046  0.66679954  1
  N  N43  1  0.00000000  0.66679954  0.33320046  1
  N  N44  1  -0.00000000  0.00000000  0.66679954  1
  N  N45  1  0.33320046  0.66679954  0.00000000  1
  N  N46  1  0.66679954  0.33320046  -0.00000000  1
  N  N47  1  -0.00000000  0.00000000  0.33320046  1
  N  N48  1  -0.00000000  0.66679954  -0.00000000  1
  N  N49  1  0.33320046  0.00000000  0.66679954  1
  N  N50  1  -0.00000000  0.33320046  0.00000000  1
  N  N51  1  0.66679954  0.00000000  0.33320046  1
  N  N52  1  -0.00000000  0.00000000  -0.00000000  1
  Mn  Mn53  1  0.50000000  0.50000000  0.50000000  1
