# generated using pymatgen
data_ZrTaTiNbMo
_symmetry_space_group_name_H-M   'P 1'
_cell_length_a   10.01238956
_cell_length_b   9.86656094
_cell_length_c   7.44486491
_cell_angle_alpha   90.56203425
_cell_angle_beta   90.67944114
_cell_angle_gamma   96.26566882
_symmetry_Int_Tables_number   1
_chemical_formula_structural   ZrTaTiNbMo
_chemical_formula_sum   'Zr8 Ta8 Ti8 Nb8 Mo8'
_cell_volume   730.97193306
_cell_formula_units_Z   8
loop_
 _symmetry_equiv_pos_site_id
 _symmetry_equiv_pos_as_xyz
  1  'x, y, z'
loop_
 _atom_site_type_symbol
 _atom_site_label
 _atom_site_symmetry_multiplicity
 _atom_site_fract_x
 _atom_site_fract_y
 _atom_site_fract_z
 _atom_site_occupancy
  Mo  Mo0  1  0.81839252  0.92322643  0.30048183  1
  Mo  Mo1  1  0.50129818  0.50776880  0.99554331  1
  Mo  Mo2  1  0.57272446  0.67352242  0.28915123  1
  Mo  Mo3  1  0.87950472  0.37340148  0.50763713  1
  Mo  Mo4  1  0.67221078  0.57948838  0.69972852  1
  Mo  Mo5  1  0.40623776  0.59779581  0.59660215  1
  Mo  Mo6  1  0.35413085  0.15750461  0.40694647  1
  Mo  Mo7  1  0.23101046  0.52108419  0.89660620  1
  Nb  Nb8  1  0.56289499  0.93914610  0.20098090  1
  Nb  Nb9  1  0.28567814  0.99282900  0.10601677  1
  Nb  Nb10  1  0.77966621  0.47651495  0.08718729  1
  Nb  Nb11  1  0.94541989  0.54925290  0.78061293  1
  Nb  Nb12  1  0.05118305  0.45266357  0.20830982  1
  Nb  Nb13  1  0.12982787  0.61635983  0.49278541  1
  Nb  Nb14  1  0.70298489  0.31008410  0.78808478  1
  Nb  Nb15  1  0.44666513  0.05075134  0.80947840  1
  Ta  Ta16  1  0.74473114  0.74780198  0.99798530  1
  Ta  Ta17  1  0.65791610  0.84163540  0.58769917  1
  Ta  Ta18  1  0.48029825  0.77094249  0.88812016  1
  Ta  Ta19  1  0.89388395  0.10167512  0.58975311  1
  Ta  Ta20  1  0.61607532  0.12299540  0.51043546  1
  Ta  Ta21  1  0.42797117  0.32985900  0.69549445  1
  Ta  Ta22  1  0.14977305  0.35799579  0.61474513  1
  Ta  Ta23  1  0.17716930  0.08234564  0.70021109  1
  Ti  Ti24  1  0.83917418  0.65217369  0.39897035  1
  Ti  Ti25  1  0.91456360  0.83397524  0.71602340  1
  Ti  Ti26  1  0.99992504  0.69890358  0.09176595  1
  Ti  Ti27  1  0.80151912  0.19416882  0.23143897  1
  Ti  Ti28  1  0.25757423  0.27234107  0.98402001  1
  Ti  Ti29  1  0.32790429  0.42200535  0.31458196  1
  Ti  Ti30  1  0.99916931  0.97954846  0.01566326  1
  Ti  Ti31  1  0.72472854  0.02242773  0.88808033  1
  Zr  Zr32  1  0.29801773  0.69505087  0.18940440  1
  Zr  Zr33  1  0.37518058  0.88117513  0.50214286  1
  Zr  Zr34  1  0.08291699  0.89102271  0.39295608  1
  Zr  Zr35  1  0.52871957  0.23023154  0.09979273  1
  Zr  Zr36  1  0.61314173  0.41319306  0.40197209  1
  Zr  Zr37  1  0.19335746  0.79223700  0.80992067  1
  Zr  Zr38  1  0.96899324  0.26559508  0.91275553  1
  Zr  Zr39  1  0.08746622  0.17930593  0.29991437  1
