# generated using pymatgen
data_ZrTaTiNbMo
_symmetry_space_group_name_H-M   'P 1'
_cell_length_a   7.39727318
_cell_length_b   9.86115132
_cell_length_c   11.90458812
_cell_angle_alpha   66.06391370
_cell_angle_beta   79.36711633
_cell_angle_gamma   67.33503646
_symmetry_Int_Tables_number   1
_chemical_formula_structural   ZrTaTiNbMo
_chemical_formula_sum   'Zr8 Ta8 Ti8 Nb8 Mo8'
_cell_volume   732.00157882
_cell_formula_units_Z   8
loop_
 _symmetry_equiv_pos_site_id
 _symmetry_equiv_pos_as_xyz
  1  'x, y, z'
loop_
 _atom_site_type_symbol
 _atom_site_label
 _atom_site_symmetry_multiplicity
 _atom_site_fract_x
 _atom_site_fract_y
 _atom_site_fract_z
 _atom_site_occupancy
  Mo  Mo0  1  0.22294857  0.07781553  0.12225316  1
  Mo  Mo1  1  0.52871610  0.17058195  0.62647056  1
  Mo  Mo2  1  0.37649352  0.11582117  0.87491802  1
  Mo  Mo3  1  0.42020177  0.46535710  0.11975007  1
  Mo  Mo4  1  0.20337411  0.39281192  0.01331496  1
  Mo  Mo5  1  0.93779067  0.65565168  0.74546322  1
  Mo  Mo6  1  0.69947825  0.90254859  0.49498599  1
  Mo  Mo7  1  0.47006426  0.83681205  0.37353091  1
  Nb  Nb8  1  0.91734099  0.28478992  0.49643488  1
  Nb  Nb9  1  0.67764010  0.21225667  0.38313104  1
  Nb  Nb10  1  0.01046998  0.99178394  0.01462260  1
  Nb  Nb11  1  0.75802537  0.24368762  0.73391489  1
  Nb  Nb12  1  0.73564745  0.57543370  0.63515098  1
  Nb  Nb13  1  0.05254651  0.34647666  0.24706975  1
  Nb  Nb14  1  0.84665426  0.95350728  0.25353335  1
  Nb  Nb15  1  0.60562701  0.87683608  0.14012093  1
  Ta  Ta16  1  0.82244209  0.27188485  0.13139168  1
  Ta  Ta17  1  0.44386807  0.14524528  0.25297698  1
  Ta  Ta18  1  0.15361886  0.05130347  0.75735775  1
  Ta  Ta19  1  0.28201395  0.42760641  0.35409136  1
  Ta  Ta20  1  0.13626084  0.36866816  0.61270789  1
  Ta  Ta21  1  0.91288904  0.97292816  0.62622550  1
  Ta  Ta22  1  0.56178908  0.85751143  0.74509593  1
  Ta  Ta23  1  0.07677988  0.70912386  0.50743178  1
  Ti  Ti24  1  0.31824511  0.10507405  0.50505850  1
  Ti  Ti25  1  0.08747307  0.02272540  0.36985954  1
  Ti  Ti26  1  0.82894463  0.59551404  0.98782602  1
  Ti  Ti27  1  0.56930980  0.53836524  0.89152508  1
  Ti  Ti28  1  0.40143625  0.80599322  0.99701776  1
  Ti  Ti29  1  0.24000571  0.77133832  0.25105613  1
  Ti  Ti30  1  0.03825146  0.66966132  0.12831146  1
  Ti  Ti31  1  0.75057094  0.93454736  0.88576791  1
  Zr  Zr32  1  0.59752539  0.19780533  0.99405796  1
  Zr  Zr33  1  0.98085500  0.32419436  0.87460346  1
  Zr  Zr34  1  0.86687369  0.62620639  0.37601705  1
  Zr  Zr35  1  0.63848716  0.54800819  0.23249452  1
  Zr  Zr36  1  0.49721026  0.50199759  0.49691589  1
  Zr  Zr37  1  0.34448145  0.44539226  0.75712661  1
  Zr  Zr38  1  0.33038425  0.78206523  0.61557511  1
  Zr  Zr39  1  0.15726506  0.72466827  0.87484283  1
