# generated using pymatgen
data_HfZrTaTiNb
_symmetry_space_group_name_H-M   'P 1'
_cell_length_a   8.31770741
_cell_length_b   10.20740561
_cell_length_c   9.66077201
_cell_angle_alpha   103.91175340
_cell_angle_beta   90.01035002
_cell_angle_gamma   82.86721875
_symmetry_Int_Tables_number   1
_chemical_formula_structural   HfZrTaTiNb
_chemical_formula_sum   'Hf8 Zr8 Ta8 Ti8 Nb8'
_cell_volume   789.62508668
_cell_formula_units_Z   8
loop_
 _symmetry_equiv_pos_site_id
 _symmetry_equiv_pos_as_xyz
  1  'x, y, z'
loop_
 _atom_site_type_symbol
 _atom_site_label
 _atom_site_symmetry_multiplicity
 _atom_site_fract_x
 _atom_site_fract_y
 _atom_site_fract_z
 _atom_site_occupancy
  Hf  Hf0  1  0.24778652  0.50980392  0.12531037  1
  Hf  Hf1  1  0.08208023  0.39787501  0.34171522  1
  Hf  Hf2  1  0.45517743  0.30552764  0.32091572  1
  Hf  Hf3  1  0.32134580  0.20576745  0.56241546  1
  Hf  Hf4  1  0.13031267  0.09179524  0.76922007  1
  Hf  Hf5  1  0.81188231  0.19461302  0.29803094  1
  Hf  Hf6  1  0.36003743  0.90175837  0.47212761  1
  Hf  Hf7  1  0.05359469  0.69613340  0.93103857  1
  Nb  Nb8  1  0.99752595  0.00370453  0.01034075  1
  Nb  Nb9  1  0.15977067  0.09341261  0.26938367  1
  Nb  Nb10  1  0.95931334  0.29066901  0.05746308  1
  Nb  Nb11  1  0.06159691  0.70126919  0.41646630  1
  Nb  Nb12  1  0.72244582  0.49730070  0.38035047  1
  Nb  Nb13  1  0.45501665  0.32245206  0.84091971  1
  Nb  Nb14  1  0.41422011  0.61194266  0.89894828  1
  Nb  Nb15  1  0.33310058  0.89825445  0.97397948  1
  Ta  Ta16  1  0.65465966  0.10040834  0.03207701  1
  Ta  Ta17  1  0.49368597  0.00936668  0.23868384  1
  Ta  Ta18  1  0.65878744  0.08392804  0.51347662  1
  Ta  Ta19  1  0.18520211  0.81654319  0.20874589  1
  Ta  Ta20  1  0.39303687  0.60487774  0.41119890  1
  Ta  Ta21  1  0.77464254  0.20974223  0.80991950  1
  Ta  Ta22  1  0.20635639  0.79638839  0.69590348  1
  Ta  Ta23  1  0.53246910  0.69850552  0.66721318  1
  Ti  Ti24  1  0.29985912  0.19363548  0.04595841  1
  Ti  Ti25  1  0.99796131  0.98578465  0.46834374  1
  Ti  Ti26  1  0.12772469  0.37621057  0.85780289  1
  Ti  Ti27  1  0.89634831  0.58843421  0.16618346  1
  Ti  Ti28  1  0.59978125  0.39512526  0.60727581  1
  Ti  Ti29  1  0.83639255  0.89648170  0.21857939  1
  Ti  Ti30  1  0.71847022  0.78740800  0.45216881  1
  Ti  Ti31  1  0.77409203  0.49402472  0.86628144  1
  Zr  Zr32  1  0.62236178  0.40400847  0.09677896  1
  Zr  Zr33  1  0.49292975  0.01018657  0.76103613  1
  Zr  Zr34  1  0.54779209  0.70989568  0.18577035  1
  Zr  Zr35  1  0.24654477  0.50340843  0.63885963  1
  Zr  Zr36  1  0.94860147  0.29386117  0.59254008  1
  Zr  Zr37  1  0.88582192  0.60760653  0.63328424  1
  Zr  Zr38  1  0.85509988  0.91482072  0.72184920  1
  Zr  Zr39  1  0.68617171  0.79706845  0.94144336  1
