# generated using pymatgen
data_MnCrFeCoNi
_symmetry_space_group_name_H-M   'P 1'
_cell_length_a   6.60322425
_cell_length_b   6.60957760
_cell_length_c   10.61009311
_cell_angle_alpha   100.10698205
_cell_angle_beta   100.40525544
_cell_angle_gamma   98.38793028
_symmetry_Int_Tables_number   1
_chemical_formula_structural   MnCrFeCoNi
_chemical_formula_sum   'Mn8 Cr8 Fe8 Co8 Ni8'
_cell_volume   440.78524250
_cell_formula_units_Z   8
loop_
 _symmetry_equiv_pos_site_id
 _symmetry_equiv_pos_as_xyz
  1  'x, y, z'
loop_
 _atom_site_type_symbol
 _atom_site_label
 _atom_site_symmetry_multiplicity
 _atom_site_fract_x
 _atom_site_fract_y
 _atom_site_fract_z
 _atom_site_occupancy
  Co  Co0  1  0.30260933  0.29569358  0.39768330  1
  Co  Co1  1  0.67465675  0.42811616  0.40134411  1
  Co  Co2  1  0.12511706  0.37947777  0.00098925  1
  Co  Co3  1  0.87105926  0.63193877  0.00288150  1
  Co  Co4  1  0.22759670  0.47454672  0.80134533  1
  Co  Co5  1  0.14130790  0.64923769  0.19330133  1
  Co  Co6  1  0.24724156  0.74729382  0.00040114  1
  Co  Co7  1  0.35253073  0.85127938  0.80270597  1
  Cr  Cr8  1  0.27789403  0.01901436  0.19860574  1
  Cr  Cr9  1  0.95806824  0.44529004  0.59352747  1
  Cr  Cr10  1  0.77724984  0.52546577  0.20110995  1
  Cr  Cr11  1  0.98087921  0.72170349  0.79391220  1
  Cr  Cr12  1  0.69174744  0.69683502  0.59716106  1
  Cr  Cr13  1  0.89045672  0.90127069  0.19696988  1
  Cr  Cr14  1  0.61942628  0.86594075  0.00110150  1
  Cr  Cr15  1  0.17399987  0.92488962  0.39712200  1
  Fe  Fe16  1  -0.00071793  -0.00342220  -0.00007044  1
  Fe  Fe17  1  0.47365010  0.22337183  0.79955307  1
  Fe  Fe18  1  0.20511398  0.20593470  0.60187561  1
  Fe  Fe19  1  0.57083483  0.33243854  0.59910412  1
  Fe  Fe20  1  0.03191693  0.27037449  0.19910407  1
  Fe  Fe21  1  0.32353602  0.58242829  0.60673376  1
  Fe  Fe22  1  0.42572757  0.67249728  0.40034579  1
  Fe  Fe23  1  0.80042197  0.79080619  0.39551632  1
  Mn  Mn24  1  0.82734607  0.07427829  0.60245356  1
  Mn  Mn25  1  0.37037222  0.12726109  0.00614920  1
  Mn  Mn26  1  0.75141792  0.25211285  -0.00020009  1
  Mn  Mn27  1  0.84868795  0.34815783  0.80219144  1
  Mn  Mn28  1  0.39838579  0.41143914  0.20014282  1
  Mn  Mn29  1  0.50307419  0.49599330  0.00125675  1
  Mn  Mn30  1  0.52024261  0.77575395  0.19815973  1
  Mn  Mn31  1  0.07976629  0.83678699  0.59819799  1
  Ni  Ni32  1  0.55147816  0.04914447  0.40106425  1
  Ni  Ni33  1  0.92743635  0.17145246  0.39891997  1
  Ni  Ni34  1  0.64911244  0.15444077  0.20210648  1
  Ni  Ni35  1  0.10060637  0.10254472  0.80303090  1
  Ni  Ni36  1  0.60101348  0.59896748  0.80268938  1
  Ni  Ni37  1  0.05217139  0.54880714  0.39987384  1
  Ni  Ni38  1  0.72506066  0.96924776  0.80089892  1
  Ni  Ni39  1  0.45150373  0.95118901  0.60074084  1
