# generated using pymatgen
data_HfZrTaTiNb
_symmetry_space_group_name_H-M   'P 1'
_cell_length_a   8.28905861
_cell_length_b   8.27211528
_cell_length_c   12.36958696
_cell_angle_alpha   96.20035115
_cell_angle_beta   95.98128277
_cell_angle_gamma   108.60229690
_symmetry_Int_Tables_number   1
_chemical_formula_structural   HfZrTaTiNb
_chemical_formula_sum   'Hf8 Zr8 Ta8 Ti8 Nb8'
_cell_volume   790.44399193
_cell_formula_units_Z   8
loop_
 _symmetry_equiv_pos_site_id
 _symmetry_equiv_pos_as_xyz
  1  'x, y, z'
loop_
 _atom_site_type_symbol
 _atom_site_label
 _atom_site_symmetry_multiplicity
 _atom_site_fract_x
 _atom_site_fract_y
 _atom_site_fract_z
 _atom_site_occupancy
  Hf  Hf0  1  0.12654347  0.38044459  0.00407492  1
  Hf  Hf1  1  0.41372442  0.66087738  0.19081719  1
  Hf  Hf2  1  0.07908341  0.83511136  0.80227260  1
  Hf  Hf3  1  0.87803605  0.62329541  0.00287127  1
  Hf  Hf4  1  0.81298750  0.80940721  0.21592209  1
  Hf  Hf5  1  0.54661057  0.05875004  0.20768465  1
  Hf  Hf6  1  0.25798879  0.01410983  0.58486418  1
  Hf  Hf7  1  0.69308508  0.70136819  0.78471202  1
  Nb  Nb8  1  0.26237185  0.76604672  0.99542114  1
  Nb  Nb9  1  0.01125562  0.01155360  0.00784212  1
  Nb  Nb10  1  0.49176371  0.48702760  0.99690136  1
  Nb  Nb11  1  0.37421175  0.12882659  0.00112606  1
  Nb  Nb12  1  0.03032076  0.25286161  0.58636526  1
  Nb  Nb13  1  0.74895515  0.24730893  0.01085475  1
  Nb  Nb14  1  0.93260728  0.18369305  0.19633968  1
  Nb  Nb15  1  0.79786730  0.54709477  0.58865869  1
  Ta  Ta16  1  0.02947620  0.54329836  0.20954041  1
  Ta  Ta17  1  0.30377570  0.27779614  0.20215138  1
  Ta  Ta18  1  0.71200923  0.97213235  0.41145237  1
  Ta  Ta19  1  0.66983670  0.42695767  0.19084815  1
  Ta  Ta20  1  0.32489706  0.58540617  0.81618338  1
  Ta  Ta21  1  0.99475172  0.71896136  0.41183233  1
  Ta  Ta22  1  0.89298196  0.90323886  0.59976526  1
  Ta  Ta23  1  0.85117104  0.07565296  0.81650568  1
  Ti  Ti24  1  0.16718628  0.90601899  0.17880086  1
  Ti  Ti25  1  0.34033049  0.86791686  0.37361474  1
  Ti  Ti26  1  0.13941837  0.62057247  0.61014299  1
  Ti  Ti27  1  0.07080676  0.07809743  0.38461662  1
  Ti  Ti28  1  0.44743355  0.22316691  0.40949356  1
  Ti  Ti29  1  0.20941062  0.21296830  0.79925090  1
  Ti  Ti30  1  0.84583141  0.33996278  0.39518791  1
  Ti  Ti31  1  0.58681309  0.34332250  0.83145219  1
  Zr  Zr32  1  0.63099962  0.87254725  0.00116911  1
  Zr  Zr33  1  0.21805634  0.46349558  0.40018356  1
  Zr  Zr34  1  0.61164853  0.58834009  0.39324597  1
  Zr  Zr35  1  0.50417466  0.78461360  0.57767618  1
  Zr  Zr36  1  0.46750883  0.96804560  0.79931559  1
  Zr  Zr37  1  0.41481565  0.40763585  0.61835450  1
  Zr  Zr38  1  0.65903831  0.17111449  0.60599004  1
  Zr  Zr39  1  0.95021517  0.44096056  0.78649833  1
