# generated using pymatgen
data_MnCrFeCoNi
_symmetry_space_group_name_H-M   'P 1'
_cell_length_a   6.27368295
_cell_length_b   7.20760333
_cell_length_c   10.26069844
_cell_angle_alpha   86.60576919
_cell_angle_beta   79.41954613
_cell_angle_gamma   86.22907145
_symmetry_Int_Tables_number   1
_chemical_formula_structural   MnCrFeCoNi
_chemical_formula_sum   'Mn8 Cr8 Fe8 Co8 Ni8'
_cell_volume   454.56901737
_cell_formula_units_Z   8
loop_
 _symmetry_equiv_pos_site_id
 _symmetry_equiv_pos_as_xyz
  1  'x, y, z'
loop_
 _atom_site_type_symbol
 _atom_site_label
 _atom_site_symmetry_multiplicity
 _atom_site_fract_x
 _atom_site_fract_y
 _atom_site_fract_z
 _atom_site_occupancy
  Co  Co0  1  0.51437477  0.70578432  0.79069133  1
  Co  Co1  1  0.63156820  0.32576348  0.79620367  1
  Co  Co2  1  0.67070125  0.93204249  0.20097906  1
  Co  Co3  1  0.97423047  0.59745924  0.40322714  1
  Co  Co4  1  0.73037207  0.75474719  0.00536295  1
  Co  Co5  1  0.11415328  0.62024610  0.00409224  1
  Co  Co6  1  0.53588558  0.31831565  0.19246456  1
  Co  Co7  1  0.61622286  0.12039865  0.00213206  1
  Cr  Cr8  1  0.88243750  0.57460938  0.81346493  1
  Cr  Cr9  1  0.24784359  0.65664061  0.59318730  1
  Cr  Cr10  1  0.22126057  0.84626772  0.40397160  1
  Cr  Cr11  1  0.60725663  0.52188814  0.59244562  1
  Cr  Cr12  1  0.35783121  0.45935803  0.40220679  1
  Cr  Cr13  1  0.35108472  0.87564361  0.99817576  1
  Cr  Cr14  1  0.91498814  0.17137733  0.20262209  1
  Cr  Cr15  1  0.00137320  0.99521416  0.99865991  1
  Fe  Fe16  1  0.13043611  0.81751961  0.79902260  1
  Fe  Fe17  1  0.00249963  0.20087428  0.80115487  1
  Fe  Fe18  1  0.98619680  0.40692536  0.60444054  1
  Fe  Fe19  1  0.37554223  0.07782534  0.79972888  1
  Fe  Fe20  1  0.74821186  0.15012951  0.59847430  1
  Fe  Fe21  1  0.73511558  0.34385991  0.39402735  1
  Fe  Fe22  1  0.49072587  0.50129171  0.99232766  1
  Fe  Fe23  1  0.25072928  0.24837262  0.99998457  1
  Mn  Mn24  1  0.75269464  0.95148987  0.80333249  1
  Mn  Mn25  1  0.49350887  0.90369956  0.59585565  1
  Mn  Mn26  1  0.58447550  0.71899643  0.39786921  1
  Mn  Mn27  1  0.37154150  0.28050826  0.59426987  1
  Mn  Mn28  1  0.78068629  0.56673421  0.20148758  1
  Mn  Mn29  1  0.11828846  0.02200571  0.60167941  1
  Mn  Mn30  1  0.14989570  0.42789907  0.20433003  1
  Mn  Mn31  1  0.86921983  0.36991235  0.00440013  1
  Ni  Ni32  1  0.85838988  0.76904659  0.61001255  1
  Ni  Ni33  1  0.84127610  0.95938613  0.40379979  1
  Ni  Ni34  1  0.25842763  0.45040929  0.79818959  1
  Ni  Ni35  1  0.04278034  0.80919439  0.20273441  1
  Ni  Ni36  1  0.41550556  0.68108783  0.19619624  1
  Ni  Ni37  1  0.09717470  0.21240566  0.40322816  1
  Ni  Ni38  1  0.47393823  0.09834817  0.39562162  1
  Ni  Ni39  1  0.30115539  0.05632203  0.19794553  1
