# generated using pymatgen
data_Ti7V
_symmetry_space_group_name_H-M   'P 1'
_cell_length_a   5.00423660
_cell_length_b   9.50046359
_cell_length_c   11.82797596
_cell_angle_alpha   102.61395587
_cell_angle_beta   97.96778171
_cell_angle_gamma   80.64054623
_symmetry_Int_Tables_number   1
_chemical_formula_structural   Ti7V
_chemical_formula_sum   'Ti28 V4'
_cell_volume   538.34133866
_cell_formula_units_Z   4
loop_
 _symmetry_equiv_pos_site_id
 _symmetry_equiv_pos_as_xyz
  1  'x, y, z'
loop_
 _atom_site_type_symbol
 _atom_site_label
 _atom_site_symmetry_multiplicity
 _atom_site_fract_x
 _atom_site_fract_y
 _atom_site_fract_z
 _atom_site_occupancy
  V  V0  1  0.43613688  0.43692355  0.74842042  1
  V  V1  1  0.76867374  0.75198063  0.00154898  1
  V  V2  1  0.23104888  0.24773540  0.99956691  1
  V  V3  1  0.99832320  0.99792356  0.00001782  1
  Ti  Ti4  1  0.46898122  0.96864750  0.88133108  1
  Ti  Ti5  1  0.93877172  0.93853842  0.75518304  1
  Ti  Ti6  1  0.22284959  0.71808164  0.87789262  1
  Ti  Ti7  1  0.96436346  0.46704389  0.87430632  1
  Ti  Ti8  1  0.68527423  0.68595180  0.75597285  1
  Ti  Ti9  1  0.40800777  0.90774452  0.62975109  1
  Ti  Ti10  1  0.87649111  0.87582131  0.50127237  1
  Ti  Ti11  1  0.71369476  0.21672945  0.87809799  1
  Ti  Ti12  1  0.15937258  0.65526804  0.62864612  1
  Ti  Ti13  1  0.90789560  0.40703665  0.62736495  1
  Ti  Ti14  1  0.62625237  0.62549448  0.50171051  1
  Ti  Ti15  1  0.34650303  0.84387902  0.37469006  1
  Ti  Ti16  1  0.81589603  0.81251421  0.24531894  1
  Ti  Ti17  1  0.19271056  0.19130981  0.75559637  1
  Ti  Ti18  1  0.65533531  0.15998502  0.62837958  1
  Ti  Ti19  1  0.37503724  0.37547935  0.50132678  1
  Ti  Ti20  1  0.09327680  0.59362513  0.37418421  1
  Ti  Ti21  1  0.84231687  0.34293905  0.37277851  1
  Ti  Ti22  1  0.56325569  0.56245251  0.24783580  1
  Ti  Ti23  1  0.28833922  0.78333055  0.12001671  1
  Ti  Ti24  1  0.12452993  0.12476775  0.50043023  1
  Ti  Ti25  1  0.59298230  0.09365326  0.37327843  1
  Ti  Ti26  1  0.30892112  0.31285146  0.24501587  1
  Ti  Ti27  1  0.03005840  0.53190219  0.11997069  1
  Ti  Ti28  1  0.77777666  0.27839524  0.11935360  1
  Ti  Ti29  1  0.49630880  0.49759095  0.99425362  1
  Ti  Ti30  1  0.06208432  0.06212777  0.24634822  1
  Ti  Ti31  1  0.52853055  0.03227593  0.12013931  1
