# generated using pymatgen
data_Ti5Al3
_symmetry_space_group_name_H-M   'P 1'
_cell_length_a   10.91573763
_cell_length_b   13.57105355
_cell_length_c   5.03914631
_cell_angle_alpha   86.68766143
_cell_angle_beta   93.42953687
_cell_angle_gamma   46.07438507
_symmetry_Int_Tables_number   1
_chemical_formula_structural   Ti5Al3
_chemical_formula_sum   'Ti20 Al12'
_cell_volume   531.54792945
_cell_formula_units_Z   4
loop_
 _symmetry_equiv_pos_site_id
 _symmetry_equiv_pos_as_xyz
  1  'x, y, z'
loop_
 _atom_site_type_symbol
 _atom_site_label
 _atom_site_symmetry_multiplicity
 _atom_site_fract_x
 _atom_site_fract_y
 _atom_site_fract_z
 _atom_site_occupancy
  Al  Al0  1  0.99745141  0.00093162  0.98626607  1
  Al  Al1  1  0.05108170  0.07045520  0.49731361  1
  Al  Al2  1  0.16007439  0.65632503  0.74377857  1
  Al  Al3  1  0.38149876  0.37180651  0.99951076  1
  Al  Al4  1  0.44188329  0.43707931  0.51296352  1
  Al  Al5  1  0.77615853  0.28577813  0.76538513  1
  Al  Al6  1  0.21611465  0.72132878  0.24403386  1
  Al  Al7  1  0.27211449  0.78623109  0.74214761  1
  Al  Al8  1  0.62210987  0.62861101  0.01116614  1
  Al  Al9  1  0.47121737  0.96262781  0.24187081  1
  Al  Al10  1  0.75355303  0.74507423  0.00029867  1
  Al  Al11  1  0.87476878  0.87413377  0.98485249  1
  Ti  Ti12  1  0.13076492  0.12348185  0.00715294  1
  Ti  Ti13  1  0.18847711  0.18641871  0.49210338  1
  Ti  Ti14  1  0.53311870  0.02443027  0.72955813  1
  Ti  Ti15  1  0.04377448  0.52251114  0.75529858  1
  Ti  Ti16  1  0.26349606  0.24267505  0.99163749  1
  Ti  Ti17  1  0.31995916  0.31097057  0.49010102  1
  Ti  Ti18  1  0.59405353  0.09197623  0.24541845  1
  Ti  Ti19  1  0.66536084  0.14728722  0.76418186  1
  Ti  Ti20  1  0.09263638  0.60024470  0.23391623  1
  Ti  Ti21  1  0.71480836  0.22380183  0.26061273  1
  Ti  Ti22  1  0.49201617  0.50833569  0.01750583  1
  Ti  Ti23  1  0.55961438  0.56563891  0.52081242  1
  Ti  Ti24  1  0.82997860  0.35754034  0.26323482  1
  Ti  Ti25  1  0.90569456  0.40797612  0.76849613  1
  Ti  Ti26  1  0.32876811  0.84711833  0.24774138  1
  Ti  Ti27  1  0.39944525  0.90468432  0.73932887  1
  Ti  Ti28  1  0.69322330  0.68364881  0.50868083  1
  Ti  Ti29  1  0.97170238  0.47096010  0.25689076  1
  Ti  Ti30  1  0.82429428  0.80295988  0.51291241  1
  Ti  Ti31  1  0.93078716  0.93695738  0.46482849  1
