# generated using pymatgen
data_Ti3Al
_symmetry_space_group_name_H-M   'P 1'
_cell_length_a   8.13364978
_cell_length_b   8.53581721
_cell_length_c   8.53432661
_cell_angle_alpha   90.40440739
_cell_angle_beta   92.04205126
_cell_angle_gamma   66.23965119
_symmetry_Int_Tables_number   1
_chemical_formula_structural   Ti3Al
_chemical_formula_sum   'Ti24 Al8'
_cell_volume   541.93163395
_cell_formula_units_Z   8
loop_
 _symmetry_equiv_pos_site_id
 _symmetry_equiv_pos_as_xyz
  1  'x, y, z'
loop_
 _atom_site_type_symbol
 _atom_site_label
 _atom_site_symmetry_multiplicity
 _atom_site_fract_x
 _atom_site_fract_y
 _atom_site_fract_z
 _atom_site_occupancy
  Ti  Ti0  1  0.97018355  0.01602958  0.01835813  1
  Ti  Ti1  1  0.07661488  0.56924806  0.09011022  1
  Ti  Ti2  1  0.58762810  0.11908986  0.05768819  1
  Ti  Ti3  1  0.14613852  0.11472516  0.77922423  1
  Ti  Ti4  1  0.23006477  0.23712976  0.47764857  1
  Ti  Ti5  1  0.53354698  0.46148051  0.98862443  1
  Ti  Ti6  1  0.03525963  0.53171005  0.66884738  1
  Ti  Ti7  1  0.16832615  0.67201204  0.42442603  1
  Ti  Ti8  1  0.28710774  0.74207184  0.14444968  1
  Ti  Ti9  1  0.65236184  0.13849049  0.44177510  1
  Ti  Ti10  1  0.80851733  0.29869223  0.21527096  1
  Ti  Ti11  1  0.29016703  0.35999591  0.88239697  1
  Ti  Ti12  1  0.41555226  0.43108221  0.61876981  1
  Ti  Ti13  1  0.57434988  0.58312602  0.40031039  1
  Ti  Ti14  1  0.21673440  0.71949999  0.81371687  1
  Ti  Ti15  1  0.33723940  0.87201623  0.56204399  1
  Ti  Ti16  1  0.73480107  0.19523410  0.78936336  1
  Ti  Ti17  1  0.86072052  0.31739879  0.55563354  1
  Ti  Ti18  1  0.60258208  0.62357974  0.73674809  1
  Ti  Ti19  1  0.73120102  0.80139858  0.54754933  1
  Ti  Ti20  1  0.84366110  0.85795964  0.23839090  1
  Ti  Ti21  1  0.43826099  0.89026845  0.95194165  1
  Ti  Ti22  1  0.81388364  0.81758526  0.88545290  1
  Ti  Ti23  1  0.97038816  0.95634934  0.60943806  1
  Al  Al24  1  0.07503255  0.02203172  0.33385922  1
  Al  Al25  1  0.19055768  0.19238423  0.12225096  1
  Al  Al26  1  0.39345806  0.39029584  0.26010334  1
  Al  Al27  1  0.49295396  0.07149706  0.71159678  1
  Al  Al28  1  0.70396161  0.64365172  0.11113429  1
  Al  Al29  1  0.47566098  0.94069475  0.28862315  1
  Al  Al30  1  0.93820581  0.52008549  0.35732370  1
  Al  Al31  1  0.90487831  0.39318535  0.91692979  1
