# generated using pymatgen
data_TiAl
_symmetry_space_group_name_H-M   'P 1'
_cell_length_a   8.88384418
_cell_length_b   8.86593278
_cell_length_c   6.79672652
_cell_angle_alpha   92.33111578
_cell_angle_beta   93.53569570
_cell_angle_gamma   81.31663631
_symmetry_Int_Tables_number   1
_chemical_formula_structural   TiAl
_chemical_formula_sum   'Ti16 Al16'
_cell_volume   527.92406322
_cell_formula_units_Z   16
loop_
 _symmetry_equiv_pos_site_id
 _symmetry_equiv_pos_as_xyz
  1  'x, y, z'
loop_
 _atom_site_type_symbol
 _atom_site_label
 _atom_site_symmetry_multiplicity
 _atom_site_fract_x
 _atom_site_fract_y
 _atom_site_fract_z
 _atom_site_occupancy
  Al  Al0  1  0.02271066  0.27047512  0.69987106  1
  Al  Al1  1  0.73394570  0.47486299  0.28893876  1
  Al  Al2  1  0.01506009  0.52090938  0.45778015  1
  Al  Al3  1  0.47795156  0.72289374  0.29267251  1
  Al  Al4  1  0.72947981  0.98482303  0.78848382  1
  Al  Al5  1  0.26921763  0.01600266  0.71347790  1
  Al  Al6  1  0.52851063  0.01959611  0.45819682  1
  Al  Al7  1  0.47904322  0.22957674  0.79869140  1
  Al  Al8  1  0.77253310  0.02376407  0.20960217  1
  Al  Al9  1  0.73546751  0.23437840  0.54437446  1
  Al  Al10  1  0.76945971  0.52633859  0.71375357  1
  Al  Al11  1  0.97690314  0.97779825  0.54162843  1
  Al  Al12  1  0.22750009  0.97838923  0.28752204  1
  Al  Al13  1  0.27458511  0.26754073  0.45467653  1
  Al  Al14  1  0.22752479  0.48449851  0.79209867  1
  Al  Al15  1  0.48481420  0.98147181  0.04213315  1
  Ti  Ti16  1  0.52910796  0.26714634  0.22048533  1
  Ti  Ti17  1  0.48623661  0.48053482  0.54193152  1
  Ti  Ti18  1  0.52163446  0.78019089  0.70365218  1
  Ti  Ti19  1  0.76476102  0.27940237  0.95804290  1
  Ti  Ti20  1  0.76413681  0.76399786  0.45565448  1
  Ti  Ti21  1  0.01427908  0.02981022  0.95364512  1
  Ti  Ti22  1  0.98647129  0.22236298  0.28643560  1
  Ti  Ti23  1  0.97850311  0.73295634  0.79222650  1
  Ti  Ti24  1  0.23214399  0.22073952  0.03256392  1
  Ti  Ti25  1  0.26234991  0.51049992  0.21048375  1
  Ti  Ti26  1  0.23288536  0.72686467  0.54037265  1
  Ti  Ti27  1  0.51219547  0.51163725  0.97119112  1
  Ti  Ti28  1  0.73024852  0.73331563  0.03456601  1
  Ti  Ti29  1  0.97697175  0.47451225  0.03781808  1
  Ti  Ti30  1  0.00887491  0.78160530  0.21454970  1
  Ti  Ti31  1  0.27449279  0.77110423  0.96247972  1
