# generated using pymatgen
data_Ti7Al
_symmetry_space_group_name_H-M   'P 1'
_cell_length_a   5.02415814
_cell_length_b   9.59836133
_cell_length_c   11.79770706
_cell_angle_alpha   102.01097668
_cell_angle_beta   97.60705939
_cell_angle_gamma   80.17321763
_symmetry_Int_Tables_number   1
_chemical_formula_structural   Ti7Al
_chemical_formula_sum   'Ti28 Al4'
_cell_volume   545.53299762
_cell_formula_units_Z   4
loop_
 _symmetry_equiv_pos_site_id
 _symmetry_equiv_pos_as_xyz
  1  'x, y, z'
loop_
 _atom_site_type_symbol
 _atom_site_label
 _atom_site_symmetry_multiplicity
 _atom_site_fract_x
 _atom_site_fract_y
 _atom_site_fract_z
 _atom_site_occupancy
  Al  Al0  1  0.43834980  0.43704223  0.75099770  1
  Al  Al1  1  0.74395202  0.74786844  0.99888973  1
  Al  Al2  1  0.25424703  0.25047307  0.00080967  1
  Al  Al3  1  0.99933309  0.99985639  0.00060589  1
  Ti  Ti4  1  0.46814919  0.96863966  0.87704246  1
  Ti  Ti5  1  0.93545065  0.93702919  0.74816203  1
  Ti  Ti6  1  0.20619204  0.71691503  0.87483977  1
  Ti  Ti7  1  0.96936742  0.46684003  0.87433897  1
  Ti  Ti8  1  0.66769157  0.68582917  0.74893236  1
  Ti  Ti9  1  0.40541503  0.90606658  0.62713915  1
  Ti  Ti10  1  0.87472728  0.87555809  0.50046412  1
  Ti  Ti11  1  0.72934434  0.21851783  0.87593466  1
  Ti  Ti12  1  0.14964832  0.65473877  0.62692695  1
  Ti  Ti13  1  0.90860438  0.40739709  0.62946152  1
  Ti  Ti14  1  0.62354955  0.62848148  0.49798880  1
  Ti  Ti15  1  0.34113146  0.84456100  0.37243610  1
  Ti  Ti16  1  0.80666216  0.80959427  0.24748871  1
  Ti  Ti17  1  0.20637554  0.18816482  0.75086697  1
  Ti  Ti18  1  0.66266202  0.15785040  0.62727862  1
  Ti  Ti19  1  0.37931089  0.37647108  0.50355857  1
  Ti  Ti20  1  0.09427219  0.59358266  0.37321451  1
  Ti  Ti21  1  0.84890763  0.34440170  0.37586918  1
  Ti  Ti22  1  0.56393852  0.56324084  0.25048985  1
  Ti  Ti23  1  0.27756296  0.78174883  0.12245170  1
  Ti  Ti24  1  0.12393051  0.12233093  0.49918644  1
  Ti  Ti25  1  0.59234292  0.09475703  0.37253189  1
  Ti  Ti26  1  0.32046259  0.31581356  0.25003705  1
  Ti  Ti27  1  0.03116549  0.53070394  0.11987746  1
  Ti  Ti28  1  0.78454245  0.28131602  0.12501714  1
  Ti  Ti29  1  0.49894804  0.49877025  0.99846885  1
  Ti  Ti30  1  0.06199416  0.06466648  0.25370698  1
  Ti  Ti31  1  0.53176877  0.03077311  0.12498615  1
