# generated using pymatgen
data_Ti21Al3V
_symmetry_space_group_name_H-M   'P 1'
_cell_length_a   7.49459698
_cell_length_b   8.93614679
_cell_length_c   13.83406591
_cell_angle_alpha   104.04900496
_cell_angle_beta   104.75980752
_cell_angle_gamma   98.75375344
_symmetry_Int_Tables_number   1
_chemical_formula_structural   Ti21Al3V
_chemical_formula_sum   'Ti42 Al6 V2'
_cell_volume   846.21014098
_cell_formula_units_Z   2
loop_
 _symmetry_equiv_pos_site_id
 _symmetry_equiv_pos_as_xyz
  1  'x, y, z'
loop_
 _atom_site_type_symbol
 _atom_site_label
 _atom_site_symmetry_multiplicity
 _atom_site_fract_x
 _atom_site_fract_y
 _atom_site_fract_z
 _atom_site_occupancy
  Al  Al0  1  0.71496635  0.31753111  0.44799503  1
  Al  Al1  1  0.99883573  0.37024172  0.81898283  1
  Al  Al2  1  0.19459413  0.25439020  0.97473786  1
  Al  Al3  1  0.90937721  0.59633080  0.40473645  1
  Al  Al4  1  0.49685617  0.62784605  0.68303853  1
  Al  Al5  1  0.38645663  0.52425557  0.93405574  1
  Ti  Ti6  1  -0.00559471  0.96980072  0.01477296  1
  Ti  Ti7  1  0.69328381  0.11251616  0.04702804  1
  Ti  Ti8  1  0.39620244  0.13092149  0.13219173  1
  Ti  Ti9  1  0.08612011  0.26725269  0.15540492  1
  Ti  Ti10  1  0.60868087  0.02308685  0.29523833  1
  Ti  Ti11  1  0.30551374  0.16156416  0.32447248  1
  Ti  Ti12  1  0.00553755  0.15754711  0.41563653  1
  Ti  Ti13  1  0.51213539  0.03307360  0.48310467  1
  Ti  Ti14  1  0.21540147  0.05335029  0.57819142  1
  Ti  Ti15  1  0.09137731  0.06846620  0.75626350  1
  Ti  Ti16  1  0.58954592  0.41162145  0.08940030  1
  Ti  Ti17  1  0.28861568  0.55122482  0.13148196  1
  Ti  Ti18  1  0.97667704  0.55727116  0.20544412  1
  Ti  Ti19  1  0.81827502  0.29319761  0.26323043  1
  Ti  Ti20  1  0.51504628  0.43297770  0.28606786  1
  Ti  Ti21  1  0.21024888  0.46598343  0.36664423  1
  Ti  Ti22  1  0.42563624  0.33375065  0.53867510  1
  Ti  Ti23  1  0.10938156  0.47487970  0.55603699  1
  Ti  Ti24  1  0.89978483  0.19436687  0.60466507  1
  Ti  Ti25  1  0.60163293  0.20271541  0.70136970  1
  Ti  Ti26  1  0.29442923  0.35326696  0.71803488  1
  Ti  Ti27  1  0.80950953  0.09707448  0.86028006  1
  Ti  Ti28  1  0.49085353  0.22291047  0.88260855  1
  Ti  Ti29  1  0.79271629  0.67890222  0.05593606  1
  Ti  Ti30  1  0.48541142  0.82158633  0.08051909  1
  Ti  Ti31  1  0.21105307  0.85603276  0.17883941  1
  Ti  Ti32  1  0.69840153  0.71406775  0.24870337  1
  Ti  Ti33  1  0.41570857  0.73258629  0.34535728  1
  Ti  Ti34  1  0.11092668  0.86295671  0.36578525  1
  Ti  Ti35  1  0.60858177  0.60893634  0.49952032  1
  Ti  Ti36  1  0.00787248  0.77169166  0.61800799  1
  Ti  Ti37  1  0.81150181  0.49534501  0.66173390  1
  Ti  Ti38  1  0.20091829  0.64677984  0.77716761  1
  Ti  Ti39  1  0.68390515  0.49804532  0.84670668  1
  Ti  Ti40  1  0.08166497  0.67028993  0.96475672  1
  Ti  Ti41  1  0.89355030  0.98746619  0.20257954  1
  Ti  Ti42  1  0.82718789  0.89329910  0.46372724  1
  Ti  Ti43  1  0.68573323  0.89882604  0.63809997  1
  Ti  Ti44  1  0.40134036  0.92429742  0.73834488  1
  Ti  Ti45  1  0.88951543  0.79242825  0.80171100  1
  Ti  Ti46  1  0.59513026  0.80917323  0.89761682  1
  Ti  Ti47  1  0.28110513  0.95226969  0.91839192  1
  V  V48  1  0.88145977  0.37896863  0.00164336  1
  V  V49  1  0.29693474  0.74663591  0.52506131  1
