# generated using pymatgen
data_TiAl
_symmetry_space_group_name_H-M   'P 1'
_cell_length_a   11.27570105
_cell_length_b   11.16801086
_cell_length_c   8.29484866
_cell_angle_alpha   107.70062968
_cell_angle_beta   113.70285229
_cell_angle_gamma   107.93819660
_symmetry_Int_Tables_number   1
_chemical_formula_structural   TiAl
_chemical_formula_sum   'Ti24 Al24'
_cell_volume   792.62648951
_cell_formula_units_Z   24
loop_
 _symmetry_equiv_pos_site_id
 _symmetry_equiv_pos_as_xyz
  1  'x, y, z'
loop_
 _atom_site_type_symbol
 _atom_site_label
 _atom_site_symmetry_multiplicity
 _atom_site_fract_x
 _atom_site_fract_y
 _atom_site_fract_z
 _atom_site_occupancy
  Al  Al0  1  0.01562741  0.99314270  0.92642080  1
  Al  Al1  1  0.02825140  -0.00244981  0.60794556  1
  Al  Al2  1  0.99190081  0.25547505  0.99628101  1
  Al  Al3  1  0.00740654  0.25330029  0.33457767  1
  Al  Al4  1  0.96653090  0.50206978  0.37627878  1
  Al  Al5  1  0.98132380  0.50901308  0.72180611  1
  Al  Al6  1  0.29141894  0.99343802  0.30356434  1
  Al  Al7  1  0.27516037  0.00872139  0.61576664  1
  Al  Al8  1  0.23369348  0.25105427  0.98607807  1
  Al  Al9  1  0.25528856  0.24055422  0.32173908  1
  Al  Al10  1  0.23156503  0.51177068  0.71417449  1
  Al  Al11  1  0.24729356  0.73922669  0.32196247  1
  Al  Al12  1  0.24571899  0.75940056  0.66193389  1
  Al  Al13  1  0.52687232  0.99480882  0.98076869  1
  Al  Al14  1  0.48362489  0.24965950  -0.00799491  1
  Al  Al15  1  0.51611888  0.24802062  0.34095255  1
  Al  Al16  1  0.51969570  0.75759180  0.02518083  1
  Al  Al17  1  0.48926484  0.73799338  0.66729448  1
  Al  Al18  1  0.77440697  0.99701878  0.95549627  1
  Al  Al19  1  0.77747063  -0.00208830  0.62128613  1
  Al  Al20  1  0.73603104  0.24750976  -0.00060587  1
  Al  Al21  1  0.76589973  0.25687014  0.35745382  1
  Al  Al22  1  0.71014845  0.50109444  0.36926312  1
  Al  Al23  1  0.75849831  0.74840997  0.00911025  1
  Ti  Ti24  1  0.02617060  -0.00096227  0.26783332  1
  Ti  Ti25  1  0.99756768  0.24843057  0.66808755  1
  Ti  Ti26  1  0.97076919  0.49809342  0.04336252  1
  Ti  Ti27  1  0.01091313  0.75532148  0.99790520  1
  Ti  Ti28  1  0.00383577  0.75280224  0.32901966  1
  Ti  Ti29  1  0.98283421  0.74482076  0.64916012  1
  Ti  Ti30  1  0.26922942  0.00180095  -0.03959807  1
  Ti  Ti31  1  0.24062600  0.25645288  0.64967889  1
  Ti  Ti32  1  0.21257659  0.49605134  0.03121612  1
  Ti  Ti33  1  0.21833248  0.49123967  0.36628745  1
  Ti  Ti34  1  0.26763373  0.76238060  0.01172858  1
  Ti  Ti35  1  0.54673528  0.00504483  0.32192573  1
  Ti  Ti36  1  0.52540940  0.98887525  0.63718480  1
  Ti  Ti37  1  0.50617090  0.25147994  0.67075154  1
  Ti  Ti38  1  0.46233832  0.50060022  0.03053039  1
  Ti  Ti39  1  0.46527302  0.48865997  0.36769431  1
  Ti  Ti40  1  0.48322563  0.50465584  0.71482742  1
  Ti  Ti41  1  0.49496270  0.74153469  0.33543541  1
  Ti  Ti42  1  0.79750023  0.01357051  0.30835582  1
  Ti  Ti43  1  0.75404117  0.24894107  0.68094803  1
  Ti  Ti44  1  0.72403404  0.50080106  0.04419021  1
  Ti  Ti45  1  0.72647394  0.50564954  0.71236478  1
  Ti  Ti46  1  0.74563758  0.74614856  0.33090701  1
  Ti  Ti47  1  0.73849745  0.74600105  0.66346891  1
