# generated using pymatgen
data_Ti5Al3
_symmetry_space_group_name_H-M   'P 1'
_cell_length_a   11.27909874
_cell_length_b   11.34975637
_cell_length_c   8.29482445
_cell_angle_alpha   102.83627541
_cell_angle_beta   110.64862903
_cell_angle_gamma   115.69446177
_symmetry_Int_Tables_number   1
_chemical_formula_structural   Ti5Al3
_chemical_formula_sum   'Ti30 Al18'
_cell_volume   801.94869301
_cell_formula_units_Z   6
loop_
 _symmetry_equiv_pos_site_id
 _symmetry_equiv_pos_as_xyz
  1  'x, y, z'
loop_
 _atom_site_type_symbol
 _atom_site_label
 _atom_site_symmetry_multiplicity
 _atom_site_fract_x
 _atom_site_fract_y
 _atom_site_fract_z
 _atom_site_occupancy
  Al  Al0  1  0.01225507  -0.01775531  0.01059907  1
  Al  Al1  1  0.97825161  0.01677362  0.67764640  1
  Al  Al2  1  0.03573300  0.24042418  0.00911622  1
  Al  Al3  1  0.03023633  0.48062093  -0.00042529  1
  Al  Al4  1  -0.00174428  0.49445046  0.32154437  1
  Al  Al5  1  0.01717742  0.72374675  -0.00629537  1
  Al  Al6  1  0.97258220  0.76819697  0.66838625  1
  Al  Al7  1  0.27835710  0.23601955  0.98926190  1
  Al  Al8  1  0.49438141  -0.00061531  0.33635569  1
  Al  Al9  1  0.52058020  0.22635313  0.98529756  1
  Al  Al10  1  0.52399222  0.47645094  0.99007473  1
  Al  Al11  1  0.50133472  0.50199175  0.32795636  1
  Al  Al12  1  0.47595808  0.78280688  0.67708045  1
  Al  Al13  1  0.76254511  0.96661439  0.00923135  1
  Al  Al14  1  0.77279414  0.22584877  -0.00387756  1
  Al  Al15  1  0.75711101  0.24817222  0.34038528  1
  Al  Al16  1  0.73768031  0.27021889  0.67072157  1
  Al  Al17  1  0.74928654  0.49196363  0.31775717  1
  Ti  Ti18  1  0.99489080  0.99901231  0.34869045  1
  Ti  Ti19  1  -0.00650614  0.24421009  0.32733729  1
  Ti  Ti20  1  0.98808022  0.26794622  0.66888131  1
  Ti  Ti21  1  0.96852620  0.51173935  0.66091891  1
  Ti  Ti22  1  0.99116140  0.73972346  0.32922163  1
  Ti  Ti23  1  0.26979794  -0.00974005  0.00256579  1
  Ti  Ti24  1  0.23882714  -0.00303204  0.32797305  1
  Ti  Ti25  1  0.21876203  0.00660275  0.65348778  1
  Ti  Ti26  1  0.26435930  0.25862683  0.32654163  1
  Ti  Ti27  1  0.23093880  0.27568142  0.65037356  1
  Ti  Ti28  1  0.28111553  0.48923430  0.00755289  1
  Ti  Ti29  1  0.26568063  0.51364962  0.35264502  1
  Ti  Ti30  1  0.21256887  0.51319008  0.65604791  1
  Ti  Ti31  1  0.27481515  0.73551854  0.00033527  1
  Ti  Ti32  1  0.24355796  0.74701840  0.33214535  1
  Ti  Ti33  1  0.22713734  0.77087938  0.67677402  1
  Ti  Ti34  1  0.52322784  0.98812188  0.00962127  1
  Ti  Ti35  1  0.47980148  0.02986024  0.66716767  1
  Ti  Ti36  1  0.51136246  0.25237637  0.32725518  1
  Ti  Ti37  1  0.47675936  0.27182761  0.65284477  1
  Ti  Ti38  1  0.48425191  0.52219214  0.66326166  1
  Ti  Ti39  1  0.52262534  0.72812158  0.00239431  1
  Ti  Ti40  1  0.50006747  0.75589989  0.34890889  1
  Ti  Ti41  1  0.74780032  0.99343012  0.34346161  1
  Ti  Ti42  1  0.73784681  0.02122985  0.68673848  1
  Ti  Ti43  1  0.77636131  0.48078734  -0.01211734  1
  Ti  Ti44  1  0.72248803  0.52632223  0.64566421  1
  Ti  Ti45  1  0.77522950  0.72279208  0.00602825  1
  Ti  Ti46  1  0.74590388  0.74541706  0.34195920  1
  Ti  Ti47  1  0.71404898  0.76907849  0.67450383  1
