# generated using pymatgen
data_Ti7Al
_symmetry_space_group_name_H-M   'P 1'
_cell_length_a   11.05092015
_cell_length_b   11.15544452
_cell_length_c   8.57272749
_cell_angle_alpha   111.93251614
_cell_angle_beta   106.25814546
_cell_angle_gamma   110.44691665
_symmetry_Int_Tables_number   1
_chemical_formula_structural   Ti7Al
_chemical_formula_sum   'Ti42 Al6'
_cell_volume   809.70325593
_cell_formula_units_Z   6
loop_
 _symmetry_equiv_pos_site_id
 _symmetry_equiv_pos_as_xyz
  1  'x, y, z'
loop_
 _atom_site_type_symbol
 _atom_site_label
 _atom_site_symmetry_multiplicity
 _atom_site_fract_x
 _atom_site_fract_y
 _atom_site_fract_z
 _atom_site_occupancy
  Ti  Ti0  1  0.01081080  0.00507564  0.05928515  1
  Ti  Ti1  1  0.01290962  0.00237649  0.40498049  1
  Ti  Ti2  1  -0.00048942  0.24500499  0.02552668  1
  Ti  Ti3  1  -0.00095193  0.24672438  0.36283098  1
  Ti  Ti4  1  0.98304655  0.48822415  0.97922091  1
  Ti  Ti5  1  0.98331921  0.48860260  0.31560535  1
  Ti  Ti6  1  0.99275681  0.49624922  0.65252009  1
  Ti  Ti7  1  0.00018139  0.74914457  0.96261318  1
  Ti  Ti8  1  0.99774885  0.74581490  0.61211630  1
  Ti  Ti9  1  0.24506694  0.99435291  0.98360702  1
  Ti  Ti10  1  0.25180198  0.00127120  0.32370337  1
  Ti  Ti11  1  0.25360965  0.00484987  0.65777861  1
  Ti  Ti12  1  0.25304765  0.25627550  0.95533660  1
  Ti  Ti13  1  0.25296305  0.25401870  0.28593980  1
  Ti  Ti14  1  0.25322546  0.25128828  0.61481287  1
  Ti  Ti15  1  0.24814207  0.50278984  0.07342376  1
  Ti  Ti16  1  0.24483518  0.49470085  0.40129812  1
  Ti  Ti17  1  0.25011998  0.49732912  0.73691895  1
  Ti  Ti18  1  0.25265949  0.74306516  0.02179588  1
  Ti  Ti19  1  0.25233269  0.74026166  0.36077825  1
  Ti  Ti20  1  0.49056173  0.99628076  0.90320315  1
  Ti  Ti21  1  0.50286003  -0.00059683  0.24256374  1
  Ti  Ti22  1  0.49480275  0.00016998  0.57451252  1
  Ti  Ti23  1  0.49531240  0.25231243  0.02443141  1
  Ti  Ti24  1  0.50102286  0.25399463  0.36787668  1
  Ti  Ti25  1  0.49615541  0.50857765  0.99397033  1
  Ti  Ti26  1  0.49519030  0.50854099  0.32688808  1
  Ti  Ti27  1  0.49991333  0.51094896  0.66353527  1
  Ti  Ti28  1  0.50534519  0.76627393  0.96085246  1
  Ti  Ti29  1  0.50932151  0.76817682  0.29622329  1
  Ti  Ti30  1  0.50378122  0.76266254  0.62422974  1
  Ti  Ti31  1  0.74863455  0.00117992  0.00003377  1
  Ti  Ti32  1  0.75062020  0.00390103  0.66272286  1
  Ti  Ti33  1  0.73512339  0.23893132  0.94424303  1
  Ti  Ti34  1  0.73092121  0.23110522  0.26837343  1
  Ti  Ti35  1  0.73570451  0.23329869  0.60305272  1
  Ti  Ti36  1  0.74978697  0.50259622  0.07291255  1
  Ti  Ti37  1  0.74380297  0.49646143  0.40288695  1
  Ti  Ti38  1  0.75276177  0.49750726  0.73364665  1
  Ti  Ti39  1  0.76342847  0.75719021  0.04144639  1
  Ti  Ti40  1  0.75989695  0.74786094  0.36394813  1
  Ti  Ti41  1  0.76227668  0.75623795  0.70240818  1
  Al  Al42  1  0.00279641  0.00016502  0.72762392  1
  Al  Al43  1  0.01224883  0.25141893  0.69892505  1
  Al  Al44  1  0.00667718  0.74851786  0.28946968  1
  Al  Al45  1  0.24078492  0.72752887  0.67919465  1
  Al  Al46  1  0.51461945  0.27148815  0.71059219  1
  Al  Al47  1  0.75851281  -0.00015091  0.33014082  1
