# generated using pymatgen
data_TiV
_symmetry_space_group_name_H-M   'P 1'
_cell_length_a   10.23573365
_cell_length_b   10.99225831
_cell_length_c   8.30770500
_cell_angle_alpha   112.35758559
_cell_angle_beta   105.67241806
_cell_angle_gamma   109.33969638
_symmetry_Int_Tables_number   1
_chemical_formula_structural   TiV
_chemical_formula_sum   'Ti24 V24'
_cell_volume   726.81084389
_cell_formula_units_Z   24
loop_
 _symmetry_equiv_pos_site_id
 _symmetry_equiv_pos_as_xyz
  1  'x, y, z'
loop_
 _atom_site_type_symbol
 _atom_site_label
 _atom_site_symmetry_multiplicity
 _atom_site_fract_x
 _atom_site_fract_y
 _atom_site_fract_z
 _atom_site_occupancy
  V  V0  1  -0.00377215  0.00055622  0.00704254  1
  V  V1  1  0.99619628  -0.00463707  0.33045440  1
  V  V2  1  0.01445515  0.00491942  0.68225742  1
  V  V3  1  0.00596043  0.24274611  0.01220773  1
  V  V4  1  -0.00040208  0.24371104  0.33158226  1
  V  V5  1  0.00733080  0.76075825  0.98805534  1
  V  V6  1  0.99345876  0.75399895  0.31719992  1
  V  V7  1  -0.00102129  0.75512730  0.65378141  1
  V  V8  1  0.22190118  0.98359136  0.64085731  1
  V  V9  1  0.23462264  0.25246715  0.99312555  1
  V  V10  1  0.23199641  0.24429888  0.30920235  1
  V  V11  1  0.25694516  0.51188276  0.02395615  1
  V  V12  1  0.24964176  0.74246800  0.00311307  1
  V  V13  1  0.52023240  0.00536848  0.02787405  1
  V  V14  1  0.48917734  0.49590488  0.31632835  1
  V  V15  1  0.48617359  0.49582359  0.63169799  1
  V  V16  1  0.48994127  0.76067319  -0.00007561  1
  V  V17  1  0.49475899  0.73327702  0.31273205  1
  V  V18  1  0.50834192  0.75407809  0.67164793  1
  V  V19  1  0.74777766  0.99842120  0.98556360  1
  V  V20  1  0.75950792  0.24615728  0.98868836  1
  V  V21  1  0.75929642  0.24696327  0.31473559  1
  V  V22  1  0.75223739  0.25085220  0.65074099  1
  V  V23  1  0.76709315  0.50175813  0.03531693  1
  Ti  Ti24  1  0.00093018  0.24967467  0.67764038  1
  Ti  Ti25  1  0.99541207  0.49815925  0.98134098  1
  Ti  Ti26  1  0.99229065  0.50000871  0.31446368  1
  Ti  Ti27  1  0.99269710  0.49914023  0.64556928  1
  Ti  Ti28  1  0.24255724  0.99674929  0.98792902  1
  Ti  Ti29  1  0.23920139  0.00580097  0.32728780  1
  Ti  Ti30  1  0.24627291  0.23616480  0.64559032  1
  Ti  Ti31  1  0.26324967  0.50369590  0.34788728  1
  Ti  Ti32  1  0.26426362  0.50359442  0.69050610  1
  Ti  Ti33  1  0.25497075  0.75518762  0.33651149  1
  Ti  Ti34  1  0.25988436  0.75528437  0.68506341  1
  Ti  Ti35  1  0.49952503  0.99030979  0.34270388  1
  Ti  Ti36  1  0.49684998  0.00597064  0.70020901  1
  Ti  Ti37  1  0.48997423  0.23816282  -0.00172827  1
  Ti  Ti38  1  0.50368620  0.25252252  0.34376294  1
  Ti  Ti39  1  0.52453160  0.26488062  0.69409372  1
  Ti  Ti40  1  0.49923386  0.50383686  0.99387351  1
  Ti  Ti41  1  0.75159743  0.00448138  0.31493675  1
  Ti  Ti42  1  0.75042853  0.00055414  0.66038123  1
  Ti  Ti43  1  0.74205499  0.49551478  0.34616233  1
  Ti  Ti44  1  0.74872865  0.50510895  0.70187716  1
  Ti  Ti45  1  0.74744874  0.74529007  0.00428842  1
  Ti  Ti46  1  0.76186727  0.75976041  0.35418028  1
  Ti  Ti47  1  0.75049252  0.74898110  0.67738365  1
