# generated using pymatgen
data_Ti5V3
_symmetry_space_group_name_H-M   'P 1'
_cell_length_a   10.84058191
_cell_length_b   10.72056412
_cell_length_c   8.40123720
_cell_angle_alpha   109.79545707
_cell_angle_beta   110.46313136
_cell_angle_gamma   107.97813149
_symmetry_Int_Tables_number   1
_chemical_formula_structural   Ti5V3
_chemical_formula_sum   'Ti30 V18'
_cell_volume   752.96154666
_cell_formula_units_Z   6
loop_
 _symmetry_equiv_pos_site_id
 _symmetry_equiv_pos_as_xyz
  1  'x, y, z'
loop_
 _atom_site_type_symbol
 _atom_site_label
 _atom_site_symmetry_multiplicity
 _atom_site_fract_x
 _atom_site_fract_y
 _atom_site_fract_z
 _atom_site_occupancy
  V  V0  1  0.00070050  0.00414313  0.01139187  1
  V  V1  1  0.00346831  0.23171650  0.98970286  1
  V  V2  1  0.99807924  0.24901267  0.30754512  1
  V  V3  1  0.00817959  0.50307573  0.68584450  1
  V  V4  1  0.00034422  0.76231182  0.98660292  1
  V  V5  1  -0.00309619  0.73867913  0.66198300  1
  V  V6  1  0.26005983  0.25642951  0.01530592  1
  V  V7  1  0.22524432  0.23802191  0.32951788  1
  V  V8  1  0.25640406  0.25762837  0.67790588  1
  V  V9  1  0.24125820  0.76681280  0.69504717  1
  V  V10  1  0.50538617  0.01736960  0.65875211  1
  V  V11  1  0.48621074  0.24650918  -0.00616292  1
  V  V12  1  0.48892573  0.24561893  0.69028609  1
  V  V13  1  0.50653952  0.76658927  0.01122582  1
  V  V14  1  0.76482764  0.00336845  0.01067819  1
  V  V15  1  0.74212044  0.98106376  0.28521316  1
  V  V16  1  0.73216979  0.47672330  0.96376086  1
  V  V17  1  0.78764647  0.77187237  0.70237068  1
  Ti  Ti18  1  0.00505890  0.00979304  0.33733629  1
  Ti  Ti19  1  0.01166712  0.01462266  0.69870284  1
  Ti  Ti20  1  0.97515193  0.23086826  0.62629336  1
  Ti  Ti21  1  0.00093164  0.50991770  0.01032241  1
  Ti  Ti22  1  0.01873291  0.51319374  0.37104170  1
  Ti  Ti23  1  0.98178915  0.73173423  0.30110371  1
  Ti  Ti24  1  0.24061033  -0.00427057  0.98242890  1
  Ti  Ti25  1  0.26215422  0.01072958  0.33396258  1
  Ti  Ti26  1  0.24989615  0.00144824  0.65554085  1
  Ti  Ti27  1  0.22325335  0.46516465  0.95598523  1
  Ti  Ti28  1  0.25049094  0.48155062  0.31428651  1
  Ti  Ti29  1  0.24990535  0.50632674  0.66521257  1
  Ti  Ti30  1  0.24776739  0.74755684  0.00343416  1
  Ti  Ti31  1  0.25843188  0.76262080  0.37934626  1
  Ti  Ti32  1  0.50581918  0.00160269  0.98524328  1
  Ti  Ti33  1  0.52341668  0.00007255  0.33202221  1
  Ti  Ti34  1  0.48555950  0.24879730  0.32422160  1
  Ti  Ti35  1  0.50538148  0.50438680  0.00593342  1
  Ti  Ti36  1  0.53224929  0.52646875  0.37233017  1
  Ti  Ti37  1  0.48771829  0.47046786  0.65299455  1
  Ti  Ti38  1  0.47271958  0.73040371  0.30168454  1
  Ti  Ti39  1  0.50413035  0.75539273  0.67585931  1
  Ti  Ti40  1  0.74489468  0.99393793  0.67088471  1
  Ti  Ti41  1  0.75211703  0.24905143  0.00876054  1
  Ti  Ti42  1  0.75803204  0.24872416  0.34539781  1
  Ti  Ti43  1  0.73784290  0.25625089  0.68450592  1
  Ti  Ti44  1  0.74689603  0.49270981  0.30359509  1
  Ti  Ti45  1  0.76022584  0.50956413  0.66762965  1
  Ti  Ti46  1  0.74895934  0.74551272  -0.00274638  1
  Ti  Ti47  1  0.75372797  0.76845359  0.35971510  1
