# generated using pymatgen
data_Ti7V
_symmetry_space_group_name_H-M   'P 1'
_cell_length_a   11.09662222
_cell_length_b   10.96768098
_cell_length_c   8.47361093
_cell_angle_alpha   106.51541828
_cell_angle_beta   110.93122252
_cell_angle_gamma   110.80394096
_symmetry_Int_Tables_number   1
_chemical_formula_structural   Ti7V
_chemical_formula_sum   'Ti42 V6'
_cell_volume   794.33363830
_cell_formula_units_Z   6
loop_
 _symmetry_equiv_pos_site_id
 _symmetry_equiv_pos_as_xyz
  1  'x, y, z'
loop_
 _atom_site_type_symbol
 _atom_site_label
 _atom_site_symmetry_multiplicity
 _atom_site_fract_x
 _atom_site_fract_y
 _atom_site_fract_z
 _atom_site_occupancy
  Ti  Ti0  1  0.98651159  0.99223269  0.95678911  1
  Ti  Ti1  1  0.99402522  -0.00010178  0.29623440  1
  Ti  Ti2  1  0.98559756  0.99213195  0.62277508  1
  Ti  Ti3  1  0.00273133  0.25062344  0.05274474  1
  Ti  Ti4  1  0.98203974  0.24630584  0.69918595  1
  Ti  Ti5  1  -0.00016466  0.49520369  0.97491706  1
  Ti  Ti6  1  0.00233982  0.48961364  0.30745443  1
  Ti  Ti7  1  0.01053362  0.49693452  0.64338635  1
  Ti  Ti8  1  0.02017310  0.76871741  0.05988835  1
  Ti  Ti9  1  0.00573546  0.75339644  0.37885362  1
  Ti  Ti10  1  0.01850236  0.76544090  0.72428205  1
  Ti  Ti11  1  0.25974007  0.01717951  0.07836600  1
  Ti  Ti12  1  0.25437231  0.00455895  0.72116858  1
  Ti  Ti13  1  0.24581721  0.24547781  -0.00505030  1
  Ti  Ti14  1  0.25620166  0.24698765  0.33989108  1
  Ti  Ti15  1  0.25274988  0.24419210  0.66606470  1
  Ti  Ti16  1  0.24654870  0.49186587  0.92292473  1
  Ti  Ti17  1  0.25572270  0.50257022  0.26296406  1
  Ti  Ti18  1  0.24664729  0.48545765  0.58470858  1
  Ti  Ti19  1  0.25210279  0.75322329  0.01583667  1
  Ti  Ti20  1  0.25395645  0.76207963  0.35551961  1
  Ti  Ti21  1  0.24888921  0.74274629  0.67410317  1
  Ti  Ti22  1  0.48526308  0.99170395  0.02743689  1
  Ti  Ti23  1  0.49383575  0.00288448  0.37691160  1
  Ti  Ti24  1  0.51638601  0.25385108  0.01826842  1
  Ti  Ti25  1  0.49494074  0.49121226  0.03578871  1
  Ti  Ti26  1  0.50018443  0.47966955  0.36427195  1
  Ti  Ti27  1  0.50195304  0.48635987  0.70055077  1
  Ti  Ti28  1  0.49668162  0.73881611  0.96288770  1
  Ti  Ti29  1  0.49683991  0.74506907  0.29991338  1
  Ti  Ti30  1  0.49833282  0.74623147  0.63518800  1
  Ti  Ti31  1  0.74510518  0.00855585  0.01270907  1
  Ti  Ti32  1  0.74387353  0.00522438  0.34104186  1
  Ti  Ti33  1  0.73816598  0.00522378  0.67223667  1
  Ti  Ti34  1  0.74438318  0.24519110  0.94876073  1
  Ti  Ti35  1  0.74780384  0.25287962  0.30806528  1
  Ti  Ti36  1  0.74841205  0.50190086  0.00317131  1
  Ti  Ti37  1  0.76414482  0.52155670  0.34936092  1
  Ti  Ti38  1  0.76025521  0.51092552  0.67786145  1
  Ti  Ti39  1  0.75038835  0.75181545  0.92534083  1
  Ti  Ti40  1  0.74811353  0.75119581  0.25380512  1
  Ti  Ti41  1  0.74871729  0.75031074  0.59006633  1
  V  V42  1  0.98757017  0.24430958  0.37229928  1
  V  V43  1  0.25790681  0.02315146  0.40284178  1
  V  V44  1  0.49450501  -0.00118334  0.70511884  1
  V  V45  1  0.52335755  0.25380397  0.37446624  1
  V  V46  1  0.50053805  0.23913459  0.67581803  1
  V  V47  1  0.73156860  0.25336838  0.63281082  1
