# generated using pymatgen
data_TiV
_symmetry_space_group_name_H-M   'P 1'
_cell_length_a   16.10688754
_cell_length_b   10.73980054
_cell_length_c   5.51692279
_cell_angle_alpha   110.22991375
_cell_angle_beta   109.15753576
_cell_angle_gamma   108.67429270
_symmetry_Int_Tables_number   1
_chemical_formula_structural   TiV
_chemical_formula_sum   'Ti24 V24'
_cell_volume   737.72023275
_cell_formula_units_Z   24
loop_
 _symmetry_equiv_pos_site_id
 _symmetry_equiv_pos_as_xyz
  1  'x, y, z'
loop_
 _atom_site_type_symbol
 _atom_site_label
 _atom_site_symmetry_multiplicity
 _atom_site_fract_x
 _atom_site_fract_y
 _atom_site_fract_z
 _atom_site_occupancy
  V  V0  1  0.99708309  0.98612100  0.97383721  1
  V  V1  1  0.01673704  0.26340622  0.53100203  1
  V  V2  1  0.99364403  0.48660794  0.96932857  1
  V  V3  1  0.17900075  0.02779850  0.54124231  1
  V  V4  1  0.17645983  0.26276731  0.00156633  1
  V  V5  1  0.16671651  0.24684876  0.49011113  1
  V  V6  1  0.16738544  0.50036390  0.00217946  1
  V  V7  1  0.17963203  0.50093758  0.51958887  1
  V  V8  1  0.18162360  0.74513837  0.98929230  1
  V  V9  1  0.32304449  0.24050780  0.97841679  1
  V  V10  1  0.33345306  0.25784307  0.50828979  1
  V  V11  1  0.32188129  0.49401505  0.47885373  1
  V  V12  1  0.32828912  0.74580135  0.99228249  1
  V  V13  1  0.32579501  0.72769354  0.47221660  1
  V  V14  1  0.49432674  0.00070743  0.45334492  1
  V  V15  1  0.48798551  0.25942856  0.99002998  1
  V  V16  1  0.49910573  0.24812402  0.51497743  1
  V  V17  1  0.50326092  0.49388473  0.00244567  1
  V  V18  1  0.65252284  0.98496496  0.50692450  1
  V  V19  1  0.64863169  0.49379980  0.97856234  1
  V  V20  1  0.67171452  0.75737472  0.48949641  1
  V  V21  1  0.86179671  0.26471660  0.53504524  1
  V  V22  1  0.83447458  0.74291095  0.97134336  1
  V  V23  1  0.81885973  0.74210196  0.48371218  1
  Ti  Ti24  1  0.00559616  0.00724551  0.49482688  1
  Ti  Ti25  1  0.00962994  0.25470863  0.01349947  1
  Ti  Ti26  1  0.01117485  0.50248290  0.50898468  1
  Ti  Ti27  1  0.01498539  0.75957150  0.05109690  1
  Ti  Ti28  1  0.99083225  0.75769753  0.53905881  1
  Ti  Ti29  1  0.16761573  0.00939616  0.02041290  1
  Ti  Ti30  1  0.16564866  0.74274380  0.48447722  1
  Ti  Ti31  1  0.33517339  0.00330909  0.02188426  1
  Ti  Ti32  1  0.33233172  0.99567333  0.50540829  1
  Ti  Ti33  1  0.33229467  0.49748323  0.99143019  1
  Ti  Ti34  1  0.49741849  0.00489622  0.96988872  1
  Ti  Ti35  1  0.48363950  0.47947251  0.48173499  1
  Ti  Ti36  1  0.48926489  0.74140083  0.98738196  1
  Ti  Ti37  1  0.50432828  0.76440521  0.51291284  1
  Ti  Ti38  1  0.68041280  0.01884497  0.05108496  1
  Ti  Ti39  1  0.65166549  0.24957200  0.97251878  1
  Ti  Ti40  1  0.67543261  0.23983831  0.49791758  1
  Ti  Ti41  1  0.66019809  0.49932885  0.48695548  1
  Ti  Ti42  1  0.66603012  0.74246446  0.97968497  1
  Ti  Ti43  1  0.84162263  0.99140342  0.01093986  1
  Ti  Ti44  1  0.82685546  0.00067646  0.51228482  1
  Ti  Ti45  1  0.83276636  0.25018127  0.99594915  1
  Ti  Ti46  1  0.82473819  0.51296769  0.01314683  1
  Ti  Ti47  1  0.83692008  0.50037204  0.52242985  1
