# generated using pymatgen
data_Ti5V3
_symmetry_space_group_name_H-M   'P 1'
_cell_length_a   16.27694553
_cell_length_b   10.95062374
_cell_length_c   5.57168396
_cell_angle_alpha   110.92532301
_cell_angle_beta   107.92906591
_cell_angle_gamma   110.01634454
_symmetry_Int_Tables_number   1
_chemical_formula_structural   Ti5V3
_chemical_formula_sum   'Ti30 V18'
_cell_volume   759.74771472
_cell_formula_units_Z   6
loop_
 _symmetry_equiv_pos_site_id
 _symmetry_equiv_pos_as_xyz
  1  'x, y, z'
loop_
 _atom_site_type_symbol
 _atom_site_label
 _atom_site_symmetry_multiplicity
 _atom_site_fract_x
 _atom_site_fract_y
 _atom_site_fract_z
 _atom_site_occupancy
  V  V0  1  0.99769544  0.98230197  0.99126365  1
  V  V1  1  0.01284433  0.00550072  0.55316068  1
  V  V2  1  0.99676085  0.50398146  0.99611329  1
  V  V3  1  0.00634457  0.74536403  0.98861516  1
  V  V4  1  0.15443923  0.24535883  0.96017600  1
  V  V5  1  0.15689959  0.50155802  0.99352499  1
  V  V6  1  0.16528699  0.49388795  0.51991349  1
  V  V7  1  0.16104240  0.74029330  0.02520358  1
  V  V8  1  0.33766193  0.25803895  0.56936223  1
  V  V9  1  0.51354965  0.01554794  0.53912038  1
  V  V10  1  0.50532302  0.49715015  0.90521173  1
  V  V11  1  0.66866895  0.01584725  0.99259611  1
  V  V12  1  0.66574475  0.01495122  0.50946754  1
  V  V13  1  0.66947355  0.24231318  0.00711872  1
  V  V14  1  0.67195705  0.25113862  0.52658069  1
  V  V15  1  0.81854801  0.24558343  0.98501307  1
  V  V16  1  0.83195020  0.47667972  0.96857464  1
  V  V17  1  0.84086397  0.77216955  0.57932210  1
  Ti  Ti18  1  0.99727613  0.25034539  0.02988480  1
  Ti  Ti19  1  0.00757687  0.24663724  0.54733934  1
  Ti  Ti20  1  0.00054340  0.49371942  0.50204206  1
  Ti  Ti21  1  0.98951386  0.74482472  0.48733854  1
  Ti  Ti22  1  0.16481319  0.99813541  0.99157272  1
  Ti  Ti23  1  0.16538415  0.99378237  0.48527504  1
  Ti  Ti24  1  0.16363204  0.24452078  0.45921472  1
  Ti  Ti25  1  0.15902751  0.73111210  0.50712258  1
  Ti  Ti26  1  0.33304834  0.00112233  0.89474894  1
  Ti  Ti27  1  0.33733928  0.00185812  0.40053189  1
  Ti  Ti28  1  0.32567121  0.24936472  0.05065248  1
  Ti  Ti29  1  0.32483938  0.49682174  0.98804827  1
  Ti  Ti30  1  0.32391504  0.48920526  0.48598451  1
  Ti  Ti31  1  0.32506212  0.74960058  0.95439448  1
  Ti  Ti32  1  0.32459500  0.74216160  0.44365636  1
  Ti  Ti33  1  0.50976964  0.01028921  0.03467008  1
  Ti  Ti34  1  0.50445305  0.25742093  0.97912063  1
  Ti  Ti35  1  0.50374114  0.25563108  0.48444637  1
  Ti  Ti36  1  0.49657773  0.50333010  0.40168866  1
  Ti  Ti37  1  0.50174668  0.75208886  0.07269498  1
  Ti  Ti38  1  0.50643412  0.77080345  0.58617414  1
  Ti  Ti39  1  0.68380681  0.50743672  0.05089588  1
  Ti  Ti40  1  0.66866590  0.49793309  0.54277477  1
  Ti  Ti41  1  0.66271127  0.74981233  0.97296186  1
  Ti  Ti42  1  0.66151241  0.74891920  0.47106987  1
  Ti  Ti43  1  0.83462724  0.00342103  0.00553409  1
  Ti  Ti44  1  0.83799056  0.99384870  0.50686404  1
  Ti  Ti45  1  0.83066145  0.24789712  0.50122616  1
  Ti  Ti46  1  0.83378792  0.50520237  0.50160494  1
  Ti  Ti47  1  0.84622205  0.75508774  0.05012881  1
