# generated using pymatgen
data_Ti7V
_symmetry_space_group_name_H-M   'P 1'
_cell_length_a   16.63262826
_cell_length_b   11.22405610
_cell_length_c   5.59625666
_cell_angle_alpha   112.07301309
_cell_angle_beta   104.46208902
_cell_angle_gamma   111.62316950
_symmetry_Int_Tables_number   1
_chemical_formula_structural   Ti7V
_chemical_formula_sum   'Ti42 V6'
_cell_volume   803.46866235
_cell_formula_units_Z   6
loop_
 _symmetry_equiv_pos_site_id
 _symmetry_equiv_pos_as_xyz
  1  'x, y, z'
loop_
 _atom_site_type_symbol
 _atom_site_label
 _atom_site_symmetry_multiplicity
 _atom_site_fract_x
 _atom_site_fract_y
 _atom_site_fract_z
 _atom_site_occupancy
  Ti  Ti0  1  0.99786279  0.98926883  0.05472063  1
  Ti  Ti1  1  0.99892477  0.98544549  0.55152621  1
  Ti  Ti2  1  -0.00043632  0.24440912  0.99645109  1
  Ti  Ti3  1  0.99952552  0.24380959  0.49567441  1
  Ti  Ti4  1  0.99995087  0.50216202  0.94015241  1
  Ti  Ti5  1  0.00019442  0.74381643  0.62350551  1
  Ti  Ti6  1  0.16806163  0.01382702  0.95191806  1
  Ti  Ti7  1  0.16748981  0.00710421  0.44441276  1
  Ti  Ti8  1  0.16671847  0.25217104  0.87652821  1
  Ti  Ti9  1  0.16330784  0.50175622  0.06233801  1
  Ti  Ti10  1  0.16328836  0.49442878  0.55682290  1
  Ti  Ti11  1  0.16479318  0.75232504  0.00208837  1
  Ti  Ti12  1  0.16519544  0.75266835  0.50173420  1
  Ti  Ti13  1  0.33067388  0.00333862  0.06376050  1
  Ti  Ti14  1  0.33951501  0.25703312  0.00946163  1
  Ti  Ti15  1  0.33707569  0.25767440  0.50921510  1
  Ti  Ti16  1  0.33086310  0.50717686  0.94206195  1
  Ti  Ti17  1  0.33110556  0.50770431  0.44064702  1
  Ti  Ti18  1  0.32822709  0.75035433  0.87138128  1
  Ti  Ti19  1  0.33000748  0.75732934  0.37797587  1
  Ti  Ti20  1  0.49727200  0.00216498  0.93499321  1
  Ti  Ti21  1  0.49659734  0.00153252  0.43669407  1
  Ti  Ti22  1  0.49403389  0.24571521  0.86563544  1
  Ti  Ti23  1  0.49855632  0.25343655  0.37544160  1
  Ti  Ti24  1  0.50554960  0.51507810  0.07684787  1
  Ti  Ti25  1  0.50561284  0.51603169  0.57669659  1
  Ti  Ti26  1  0.50093383  0.75577218  0.00427957  1
  Ti  Ti27  1  0.50013836  0.75591341  0.50369063  1
  Ti  Ti28  1  0.66993809  0.99927397  0.06482002  1
  Ti  Ti29  1  0.66981857  0.99924749  0.56166769  1
  Ti  Ti30  1  0.66695779  0.24744004  0.99746947  1
  Ti  Ti31  1  0.66784267  0.24613641  0.49672492  1
  Ti  Ti32  1  0.66364340  0.48883618  0.92485589  1
  Ti  Ti33  1  0.66458395  0.49283196  0.42960926  1
  Ti  Ti34  1  0.67316587  0.75653019  0.13263323  1
  Ti  Ti35  1  0.83051895  0.99096503  0.92833012  1
  Ti  Ti36  1  0.84145010  0.25612176  0.13602783  1
  Ti  Ti37  1  0.83638250  0.23940576  0.61970059  1
  Ti  Ti38  1  0.83682228  0.49468115  0.06337522  1
  Ti  Ti39  1  0.83622040  0.49502670  0.55975662  1
  Ti  Ti40  1  0.82850396  0.74330108  0.98828366  1
  Ti  Ti41  1  0.82818726  0.74265653  0.49186827  1
  V  V42  1  0.00488831  0.49640999  0.43945554  1
  V  V43  1  0.99966841  0.75240983  0.12883423  1
  V  V44  1  0.16448174  0.24374766  0.36904145  1
  V  V45  1  0.32642109  0.00391503  0.56009847  1
  V  V46  1  0.66725622  0.74556468  0.61927569  1
  V  V47  1  0.84220966  0.99605078  0.44151670  1
