# generated using pymatgen
data_Ti7V
_symmetry_space_group_name_H-M   'P 1'
_cell_length_a   16.54512684
_cell_length_b   11.23928112
_cell_length_c   5.63067570
_cell_angle_alpha   112.36494468
_cell_angle_beta   104.81604232
_cell_angle_gamma   111.17218754
_symmetry_Int_Tables_number   1
_chemical_formula_structural   Ti7V
_chemical_formula_sum   'Ti42 V6'
_cell_volume   803.64059530
_cell_formula_units_Z   6
loop_
 _symmetry_equiv_pos_site_id
 _symmetry_equiv_pos_as_xyz
  1  'x, y, z'
loop_
 _atom_site_type_symbol
 _atom_site_label
 _atom_site_symmetry_multiplicity
 _atom_site_fract_x
 _atom_site_fract_y
 _atom_site_fract_z
 _atom_site_occupancy
  Ti  Ti0  1  0.99429190  0.98697905  0.91823894  1
  Ti  Ti1  1  0.98977677  0.98161001  0.41437978  1
  Ti  Ti2  1  0.00055961  0.24874904  0.11477959  1
  Ti  Ti3  1  0.00465651  0.25392953  0.62243375  1
  Ti  Ti4  1  0.00180632  0.49767005  0.05181592  1
  Ti  Ti5  1  0.00116793  0.49749298  0.55423851  1
  Ti  Ti6  1  0.99219655  0.74361021  0.97553609  1
  Ti  Ti7  1  0.99341788  0.74508959  0.48045787  1
  Ti  Ti8  1  0.16805298  0.99282222  0.05196275  1
  Ti  Ti9  1  0.16685764  0.99337956  0.55177430  1
  Ti  Ti10  1  0.16201737  0.24536961  0.98719652  1
  Ti  Ti11  1  0.16148046  0.24567555  0.48800233  1
  Ti  Ti12  1  0.16779149  0.49715831  0.43069884  1
  Ti  Ti13  1  0.16727038  0.74274953  0.11397770  1
  Ti  Ti14  1  0.16867965  0.74980756  0.62013787  1
  Ti  Ti15  1  0.33778791  0.00001936  0.93698202  1
  Ti  Ti16  1  0.33494423  0.99928166  0.43577348  1
  Ti  Ti17  1  0.33538811  0.25078414  0.12204294  1
  Ti  Ti18  1  0.33433143  0.24989335  0.62182740  1
  Ti  Ti19  1  0.33151712  0.49211646  0.05201266  1
  Ti  Ti20  1  0.33270742  0.48927394  0.55016270  1
  Ti  Ti21  1  0.33344365  0.74686535  0.99487240  1
  Ti  Ti22  1  0.33388777  0.74762413  0.49428140  1
  Ti  Ti23  1  0.50188549  0.00595465  0.56578555  1
  Ti  Ti24  1  0.50291938  0.25644063  0.00261179  1
  Ti  Ti25  1  0.50026883  0.25146516  0.49884399  1
  Ti  Ti26  1  0.50344475  0.51365923  0.94844015  1
  Ti  Ti27  1  0.50614235  0.51181174  0.44773430  1
  Ti  Ti28  1  0.49945012  0.75635211  0.87692778  1
  Ti  Ti29  1  0.50142482  0.75112742  0.37549951  1
  Ti  Ti30  1  0.66424887  0.00661099  0.94173580  1
  Ti  Ti31  1  0.66403107  0.00494225  0.43701684  1
  Ti  Ti32  1  0.66093553  0.25335435  0.37838092  1
  Ti  Ti33  1  0.67110968  0.50883738  0.05017283  1
  Ti  Ti34  1  0.67397063  0.75730589  0.01038307  1
  Ti  Ti35  1  0.67770943  0.75702208  0.51614304  1
  Ti  Ti36  1  0.83809872  0.00422612  0.05539625  1
  Ti  Ti37  1  0.83790966  0.00480655  0.55631217  1
  Ti  Ti38  1  0.83075000  0.25194645  0.99440391  1
  Ti  Ti39  1  0.83269558  0.25202281  0.49441196  1
  Ti  Ti40  1  0.82615178  0.49580069  0.93396852  1
  Ti  Ti41  1  0.82566091  0.49974359  0.43965639  1
  V  V42  1  0.17104405  0.49646759  0.93309671  1
  V  V43  1  0.49835562  0.00446636  0.06102348  1
  V  V44  1  0.66458019  0.25224148  0.88146988  1
  V  V45  1  0.67527798  0.52041658  0.56337000  1
  V  V46  1  0.82458878  0.73669473  0.95621467  1
  V  V47  1  0.83331468  0.74833199  0.49741471  1
