# generated using pymatgen
data_Ti21Al3V
_symmetry_space_group_name_H-M   'P 1'
_cell_length_a   7.49722612
_cell_length_b   8.94134038
_cell_length_c   13.83726555
_cell_angle_alpha   104.01401248
_cell_angle_beta   104.74466694
_cell_angle_gamma   98.81142696
_symmetry_Int_Tables_number   1
_chemical_formula_structural   Ti21Al3V
_chemical_formula_sum   'Ti42 Al6 V2'
_cell_volume   847.22322845
_cell_formula_units_Z   2
loop_
 _symmetry_equiv_pos_site_id
 _symmetry_equiv_pos_as_xyz
  1  'x, y, z'
loop_
 _atom_site_type_symbol
 _atom_site_label
 _atom_site_symmetry_multiplicity
 _atom_site_fract_x
 _atom_site_fract_y
 _atom_site_fract_z
 _atom_site_occupancy
  Al  Al0  1  0.71486639  0.31750613  0.44776530  1
  Al  Al1  1  0.99857479  0.36987427  0.81872582  1
  Al  Al2  1  0.19450341  0.25493862  0.97489078  1
  Al  Al3  1  0.91006081  0.59624975  0.40461895  1
  Al  Al4  1  0.49642722  0.62790658  0.68285914  1
  Al  Al5  1  0.38596832  0.52418032  0.93394902  1
  Ti  Ti6  1  -0.00531948  0.96937222  0.01469191  1
  Ti  Ti7  1  0.69305577  0.11188486  0.04685370  1
  Ti  Ti8  1  0.39652805  0.13155302  0.13251419  1
  Ti  Ti9  1  0.08499711  0.26771165  0.15487124  1
  Ti  Ti10  1  0.60925307  0.02251309  0.29538538  1
  Ti  Ti11  1  0.30553842  0.16116230  0.32431421  1
  Ti  Ti12  1  0.00642353  0.15835840  0.41617316  1
  Ti  Ti13  1  0.51291385  0.03473285  0.48364984  1
  Ti  Ti14  1  0.21613564  0.05257296  0.57867003  1
  Ti  Ti15  1  0.09102084  0.06828292  0.75658224  1
  Ti  Ti16  1  0.59007102  0.41083387  0.08929464  1
  Ti  Ti17  1  0.29175323  0.55263914  0.13247177  1
  Ti  Ti18  1  0.97780489  0.55730471  0.20492335  1
  Ti  Ti19  1  0.81741412  0.29286344  0.26299231  1
  Ti  Ti20  1  0.51492188  0.43375082  0.28629138  1
  Ti  Ti21  1  0.21022284  0.46558151  0.36666642  1
  Ti  Ti22  1  0.42456336  0.33456184  0.53816367  1
  Ti  Ti23  1  0.10869695  0.47536415  0.55622282  1
  Ti  Ti24  1  0.90030266  0.19414728  0.60463403  1
  Ti  Ti25  1  0.60298067  0.20312183  0.70182949  1
  Ti  Ti26  1  0.29490236  0.35304168  0.71772460  1
  Ti  Ti27  1  0.80966821  0.09642125  0.86077676  1
  Ti  Ti28  1  0.49024912  0.22250621  0.88228205  1
  Ti  Ti29  1  0.79171015  0.67955474  0.05627989  1
  Ti  Ti30  1  0.48489847  0.82183314  0.07990360  1
  Ti  Ti31  1  0.21107998  0.85594099  0.17881433  1
  Ti  Ti32  1  0.69846825  0.71343574  0.24879125  1
  Ti  Ti33  1  0.41651678  0.73398816  0.34640430  1
  Ti  Ti34  1  0.11068649  0.86319078  0.36581561  1
  Ti  Ti35  1  0.61004258  0.60905391  0.49986386  1
  Ti  Ti36  1  0.00855611  0.77292779  0.61767946  1
  Ti  Ti37  1  0.80947316  0.49355570  0.66147309  1
  Ti  Ti38  1  0.20076715  0.64662156  0.77758955  1
  Ti  Ti39  1  0.68383826  0.49805716  0.84668097  1
  Ti  Ti40  1  0.08084745  0.66921893  0.96508284  1
  Ti  Ti41  1  0.89475514  0.98842106  0.20298955  1
  Ti  Ti42  1  0.82609664  0.89281742  0.46336897  1
  Ti  Ti43  1  0.68462744  0.89868500  0.63796119  1
  Ti  Ti44  1  0.39993673  0.92323415  0.73779348  1
  Ti  Ti45  1  0.88930940  0.79189218  0.80124601  1
  Ti  Ti46  1  0.59565728  0.80904372  0.89713396  1
  Ti  Ti47  1  0.28165700  0.95267987  0.91874254  1
  V  V48  1  0.87979144  0.37900625  0.00070426  1
  V  V49  1  0.29678504  0.74590406  0.52489310  1
