# generated using pymatgen
data_Ti24V
_symmetry_space_group_name_H-M   'P 1'
_cell_length_a   15.64347060
_cell_length_b   15.64347060
_cell_length_c   4.28197423
_cell_angle_alpha   100.61865531
_cell_angle_beta   100.61865537
_cell_angle_gamma   125.64706648
_symmetry_Int_Tables_number   1
_chemical_formula_structural   Ti24V
_chemical_formula_sum   'Ti48 V2'
_cell_volume   779.14752817
_cell_formula_units_Z   2
loop_
 _symmetry_equiv_pos_site_id
 _symmetry_equiv_pos_as_xyz
  1  'x, y, z'
loop_
 _atom_site_type_symbol
 _atom_site_label
 _atom_site_symmetry_multiplicity
 _atom_site_fract_x
 _atom_site_fract_y
 _atom_site_fract_z
 _atom_site_occupancy
  Ti  Ti0  1  0.00243067  0.00243067  0.00325984  1
  Ti  Ti1  1  -0.00243067  -0.00243067  0.49674016  1
  Ti  Ti2  1  0.00444828  0.19819678  -0.00508527  1
  Ti  Ti3  1  0.00600180  0.19424461  0.49306231  1
  Ti  Ti4  1  -0.00604221  0.40544902  0.00257398  1
  Ti  Ti5  1  -0.00027030  0.39937509  0.50175631  1
  Ti  Ti6  1  0.00027030  0.60062491  -0.00175631  1
  Ti  Ti7  1  0.00604221  0.59455098  0.49742602  1
  Ti  Ti8  1  -0.00600180  0.80575539  0.00693769  1
  Ti  Ti9  1  -0.00444828  0.80180322  0.50508527  1
  Ti  Ti10  1  0.19819678  0.00444828  -0.00508527  1
  Ti  Ti11  1  0.19424461  0.00600180  0.49306231  1
  Ti  Ti12  1  0.20283636  0.20283636  -0.00238407  1
  Ti  Ti13  1  0.20384167  0.20384167  0.49706193  1
  Ti  Ti14  1  0.19125164  0.40682300  -0.00290846  1
  Ti  Ti15  1  0.19930721  0.40538789  0.50143479  1
  Ti  Ti16  1  0.19615317  0.60150012  -0.01592026  1
  Ti  Ti17  1  0.20051282  0.59751258  0.48418459  1
  Ti  Ti18  1  0.18957491  0.80609886  -0.00303726  1
  Ti  Ti19  1  0.19390114  0.81042509  0.50303726  1
  Ti  Ti20  1  0.40544902  -0.00604221  0.00257398  1
  Ti  Ti21  1  0.39937509  -0.00027030  0.50175631  1
  Ti  Ti22  1  0.40682300  0.19125164  -0.00290846  1
  Ti  Ti23  1  0.40538789  0.19930721  0.50143479  1
  Ti  Ti24  1  0.40083925  0.40083925  0.01374419  1
  Ti  Ti25  1  0.40821932  0.59550454  0.00212886  1
  Ti  Ti26  1  0.40449546  0.59178068  0.49787114  1
  Ti  Ti27  1  0.40248742  0.79948718  0.01581541  1
  Ti  Ti28  1  0.39849988  0.80384683  0.51592026  1
  Ti  Ti29  1  0.60062491  0.00027030  -0.00175631  1
  Ti  Ti30  1  0.59455098  0.00604221  0.49742602  1
  Ti  Ti31  1  0.60150012  0.19615317  -0.01592026  1
  Ti  Ti32  1  0.59751258  0.20051282  0.48418459  1
  Ti  Ti33  1  0.59550454  0.40821932  0.00212886  1
  Ti  Ti34  1  0.59178068  0.40449546  0.49787114  1
  Ti  Ti35  1  0.59916075  0.59916075  0.48625581  1
  Ti  Ti36  1  0.59461211  0.80069279  0.99856521  1
  Ti  Ti37  1  0.59317700  0.80874836  0.50290846  1
  Ti  Ti38  1  0.80575539  -0.00600180  0.00693769  1
  Ti  Ti39  1  0.80180322  -0.00444828  0.50508527  1
  Ti  Ti40  1  0.80609886  0.18957491  -0.00303726  1
  Ti  Ti41  1  0.81042509  0.19390114  0.50303726  1
  Ti  Ti42  1  0.79948718  0.40248742  0.01581541  1
  Ti  Ti43  1  0.80384683  0.39849988  0.51592026  1
  Ti  Ti44  1  0.80069279  0.59461211  0.99856521  1
  Ti  Ti45  1  0.80874836  0.59317700  0.50290846  1
  Ti  Ti46  1  0.79615833  0.79615833  0.00293807  1
  Ti  Ti47  1  0.79716364  0.79716364  0.50238407  1
  V  V48  1  0.40860782  0.40860782  0.52592174  1
  V  V49  1  0.59139218  0.59139218  0.97407826  1
