# generated using pymatgen
data_TiV
_symmetry_space_group_name_H-M   'P 1'
_cell_length_a   10.26741820
_cell_length_b   10.88305816
_cell_length_c   8.25365507
_cell_angle_alpha   111.24260439
_cell_angle_beta   106.32783262
_cell_angle_gamma   108.81097617
_symmetry_Int_Tables_number   1
_chemical_formula_structural   TiV
_chemical_formula_sum   'Ti24 V24'
_cell_volume   726.21412461
_cell_formula_units_Z   24
loop_
 _symmetry_equiv_pos_site_id
 _symmetry_equiv_pos_as_xyz
  1  'x, y, z'
loop_
 _atom_site_type_symbol
 _atom_site_label
 _atom_site_symmetry_multiplicity
 _atom_site_fract_x
 _atom_site_fract_y
 _atom_site_fract_z
 _atom_site_occupancy
  V  V0  1  0.99318164  0.98919791  0.95798826  1
  V  V1  1  0.99800217  0.01310363  0.66375228  1
  V  V2  1  -0.01367043  0.26430082  0.33877423  1
  V  V3  1  0.98565009  0.24957190  0.65526628  1
  V  V4  1  0.99426431  0.50276681  0.00605581  1
  V  V5  1  0.98888828  0.49339532  0.33936005  1
  V  V6  1  0.00779138  0.49922812  0.67399149  1
  V  V7  1  0.25533476  0.00480408  0.01883793  1
  V  V8  1  0.26208113  0.25353923  0.02718787  1
  V  V9  1  0.22406961  0.49454158  0.65243403  1
  V  V10  1  0.24085416  0.74310675  0.98745006  1
  V  V11  1  0.23204624  0.73105113  0.28612977  1
  V  V12  1  0.49442555  0.00872696  0.98853849  1
  V  V13  1  0.53413331  0.26326998  0.67677114  1
  V  V14  1  0.52466675  0.52042446  0.03300220  1
  V  V15  1  0.51975901  0.50335233  0.33689308  1
  V  V16  1  0.75521223  0.00373888  0.34964779  1
  V  V17  1  0.76061259  0.25094189  0.34176520  1
  V  V18  1  0.76429653  0.25734260  0.67671792  1
  V  V19  1  0.74438029  0.49951137  0.99441111  1
  V  V20  1  0.74542007  0.50199556  0.32358883  1
  V  V21  1  0.73889493  0.73253648  0.98265539  1
  V  V22  1  0.75230320  0.75388730  0.32931619  1
  V  V23  1  0.75224777  0.74503898  0.65450728  1
  Ti  Ti24  1  0.98763121  -0.00070370  0.32362032  1
  Ti  Ti25  1  0.01200453  0.25550283  0.00044400  1
  Ti  Ti26  1  0.00958306  0.76261511  0.01725223  1
  Ti  Ti27  1  -0.00328670  0.73653339  0.33138673  1
  Ti  Ti28  1  0.99687011  0.75242354  0.67161564  1
  Ti  Ti29  1  0.26925588  0.01027712  0.36560657  1
  Ti  Ti30  1  0.23325809  -0.00812166  0.68891504  1
  Ti  Ti31  1  0.21618645  0.22611310  0.30753518  1
  Ti  Ti32  1  0.24947410  0.25214671  0.67602254  1
  Ti  Ti33  1  0.24341238  0.49337986  0.98478415  1
  Ti  Ti34  1  0.25632743  0.50505788  0.33797710  1
  Ti  Ti35  1  0.25045712  0.74092361  0.64644059  1
  Ti  Ti36  1  0.50555013  0.99603489  0.30868523  1
  Ti  Ti37  1  0.48772369  0.99526195  0.64971395  1
  Ti  Ti38  1  0.48822835  0.25657873  -0.01681201  1
  Ti  Ti39  1  0.50400844  0.25295164  0.32826217  1
  Ti  Ti40  1  0.48584779  0.48535062  0.67280511  1
  Ti  Ti41  1  0.49969684  0.74999869  0.00267604  1
  Ti  Ti42  1  0.49964114  0.74337133  0.33808052  1
  Ti  Ti43  1  0.52785644  0.75465358  0.68937839  1
  Ti  Ti44  1  0.76183051  0.00377332  0.02851018  1
  Ti  Ti45  1  0.75983575  0.00114604  0.67741354  1
  Ti  Ti46  1  0.74673171  0.25196212  0.00418567  1
  Ti  Ti47  1  0.75702996  0.50339526  0.67045845  1
