# generated using pymatgen
data_Ti5V3
_symmetry_space_group_name_H-M   'P 1'
_cell_length_a   10.47343775
_cell_length_b   11.06821160
_cell_length_c   8.33469574
_cell_angle_alpha   111.56820580
_cell_angle_beta   106.69294269
_cell_angle_gamma   109.22222049
_symmetry_Int_Tables_number   1
_chemical_formula_structural   Ti5V3
_chemical_formula_sum   'Ti30 V18'
_cell_volume   751.15616432
_cell_formula_units_Z   6
loop_
 _symmetry_equiv_pos_site_id
 _symmetry_equiv_pos_as_xyz
  1  'x, y, z'
loop_
 _atom_site_type_symbol
 _atom_site_label
 _atom_site_symmetry_multiplicity
 _atom_site_fract_x
 _atom_site_fract_y
 _atom_site_fract_z
 _atom_site_occupancy
  Ti  Ti0  1  0.00000837  0.00466226  0.02011510  1
  Ti  Ti1  1  0.00699272  -0.00669779  0.35089991  1
  Ti  Ti2  1  0.01301712  0.00751474  0.69018202  1
  Ti  Ti3  1  0.99751409  0.25643619  0.99388478  1
  Ti  Ti4  1  0.99713396  0.24181070  0.32076204  1
  Ti  Ti5  1  0.00324516  0.25971286  0.66430575  1
  Ti  Ti6  1  0.00353225  0.51227943  0.64914129  1
  Ti  Ti7  1  0.98063052  0.73573886  0.01330808  1
  Ti  Ti8  1  0.98949531  0.72997104  0.35064321  1
  Ti  Ti9  1  0.04430517  0.78042791  0.72987466  1
  Ti  Ti10  1  0.25316952  -0.00604775  0.29054125  1
  Ti  Ti11  1  0.25235541  -0.00089542  0.64912973  1
  Ti  Ti12  1  0.25309816  0.51087193  0.34799397  1
  Ti  Ti13  1  0.25482396  0.49406659  0.68260185  1
  Ti  Ti14  1  0.25872675  0.74681937  0.00500023  1
  Ti  Ti15  1  0.48766092  0.98758709  0.00492835  1
  Ti  Ti16  1  0.50279906  -0.00466160  0.67511086  1
  Ti  Ti17  1  0.50521797  0.25347308  -0.00069557  1
  Ti  Ti18  1  0.48255783  0.24773865  0.32228074  1
  Ti  Ti19  1  0.49365793  0.25036442  0.65944987  1
  Ti  Ti20  1  0.50302245  0.50359312  0.97942441  1
  Ti  Ti21  1  0.49208656  0.49295218  0.29160586  1
  Ti  Ti22  1  0.50402937  0.51251713  0.64420936  1
  Ti  Ti23  1  0.49146392  0.74741311  0.31882491  1
  Ti  Ti24  1  0.73717466  0.99078721  0.29918934  1
  Ti  Ti25  1  0.74693852  -0.00389619  0.64332819  1
  Ti  Ti26  1  0.74833771  0.24958215  0.35339063  1
  Ti  Ti27  1  0.76404690  0.50850092  0.35635104  1
  Ti  Ti28  1  0.74681210  0.47680475  0.67933714  1
  Ti  Ti29  1  0.74883563  0.74867500  0.66372251  1
  V  V30  1  0.99540332  0.49964528  0.00983148  1
  V  V31  1  0.98945517  0.48180024  0.30292270  1
  V  V32  1  0.25635701  0.03780283  0.99122487  1
  V  V33  1  0.25328446  0.25897918  -0.00360844  1
  V  V34  1  0.24827881  0.25322800  0.35193249  1
  V  V35  1  0.24442890  0.24866144  0.66811039  1
  V  V36  1  0.24662820  0.49183119  0.01472084  1
  V  V37  1  0.23582357  0.74654370  0.31761663  1
  V  V38  1  0.25098566  0.74034093  0.64188040  1
  V  V39  1  0.51824861  0.01805151  0.36968089  1
  V  V40  1  0.51271205  0.74595140  -0.01194611  1
  V  V41  1  0.50081560  0.76185353  0.68674146  1
  V  V42  1  0.73188603  0.98865444  0.96807632  1
  V  V43  1  0.75647577  0.24981976  0.00755847  1
  V  V44  1  0.75234969  0.24640803  0.69693310  1
  V  V45  1  0.75602759  0.48643519  0.01262691  1
  V  V46  1  0.73777734  0.75293668  0.99960014  1
  V  V47  1  0.75037224  0.76295475  0.32725596  1
