# generated using pymatgen
data_Ti5V3
_symmetry_space_group_name_H-M   'P 1'
_cell_length_a   10.27725021
_cell_length_b   10.86470022
_cell_length_c   8.41468401
_cell_angle_alpha   110.98878216
_cell_angle_beta   106.71724814
_cell_angle_gamma   107.58121245
_symmetry_Int_Tables_number   1
_chemical_formula_structural   Ti5V3
_chemical_formula_sum   'Ti30 V18'
_cell_volume   749.00281123
_cell_formula_units_Z   6
loop_
 _symmetry_equiv_pos_site_id
 _symmetry_equiv_pos_as_xyz
  1  'x, y, z'
loop_
 _atom_site_type_symbol
 _atom_site_label
 _atom_site_symmetry_multiplicity
 _atom_site_fract_x
 _atom_site_fract_y
 _atom_site_fract_z
 _atom_site_occupancy
  Ti  Ti0  1  0.99352806  0.98923022  0.96976838  1
  Ti  Ti1  1  0.98720822  0.00786231  0.64603852  1
  Ti  Ti2  1  0.98233199  0.24376808  0.00716814  1
  Ti  Ti3  1  0.01182709  0.25336742  0.35309279  1
  Ti  Ti4  1  0.02809469  0.29251500  0.71756589  1
  Ti  Ti5  1  0.99160937  0.49932930  0.99782950  1
  Ti  Ti6  1  0.00786058  0.76588434  0.02798815  1
  Ti  Ti7  1  0.00692285  0.75389621  0.66982652  1
  Ti  Ti8  1  0.26893730  0.00633116  0.02690350  1
  Ti  Ti9  1  0.25801171  0.99356947  0.67306475  1
  Ti  Ti10  1  0.25168854  0.25384556  0.99466930  1
  Ti  Ti11  1  0.23426877  0.23180699  0.62897663  1
  Ti  Ti12  1  0.25103106  0.49725005  0.34060091  1
  Ti  Ti13  1  0.25279585  0.51100379  0.69131845  1
  Ti  Ti14  1  0.23497405  0.72277036  0.97280389  1
  Ti  Ti15  1  0.48747446  0.99358274  0.31737969  1
  Ti  Ti16  1  0.51765135  0.25057181  0.02466575  1
  Ti  Ti17  1  0.50167781  0.27166073  0.35898974  1
  Ti  Ti18  1  0.50770195  0.25570200  0.69104290  1
  Ti  Ti19  1  0.49062926  0.49344968  0.98329489  1
  Ti  Ti20  1  0.48704479  0.48889348  0.63466167  1
  Ti  Ti21  1  0.52171679  0.77179023  0.03000260  1
  Ti  Ti22  1  0.49541000  0.74966984  0.35162800  1
  Ti  Ti23  1  0.50984496  0.76217726  0.69077581  1
  Ti  Ti24  1  0.75010257  0.01055652  0.01276166  1
  Ti  Ti25  1  0.77496973  0.01650552  0.36431874  1
  Ti  Ti26  1  0.73826926  0.24042015  0.30771831  1
  Ti  Ti27  1  0.74372904  0.22720897  0.64983471  1
  Ti  Ti28  1  0.76348789  0.51450317  0.68794811  1
  Ti  Ti29  1  0.75334059  0.74212605  0.31912428  1
  V  V30  1  0.99241770  0.97533388  0.30563302  1
  V  V31  1  0.99145285  0.50473864  0.33251317  1
  V  V32  1  0.98474466  0.48951093  0.62387510  1
  V  V33  1  0.00976171  0.74683805  0.33959504  1
  V  V34  1  0.24473491  0.00953854  0.35055215  1
  V  V35  1  0.23552014  0.22576135  0.29811357  1
  V  V36  1  0.26191716  0.51551806  0.04698748  1
  V  V37  1  0.23541459  0.74991373  0.32650810  1
  V  V38  1  0.24495864  0.73701775  0.63653121  1
  V  V39  1  0.48196246  0.98000987  0.95619209  1
  V  V40  1  0.51183912  0.00396440  0.66515490  1
  V  V41  1  0.51475411  0.50623809  0.31982873  1
  V  V42  1  0.74114072  0.98823313  0.67760763  1
  V  V43  1  0.74291415  0.26028542  0.98442689  1
  V  V44  1  0.75535975  0.51233642  0.02355309  1
  V  V45  1  0.76398749  0.50797272  0.34764067  1
  V  V46  1  0.74281284  0.73171699  0.97713419  1
  V  V47  1  0.74016636  0.74382362  0.64639082  1
