# generated using pymatgen
data_Ti3V
_symmetry_space_group_name_H-M   'P 1'
_cell_length_a   10.92116776
_cell_length_b   10.94595080
_cell_length_c   8.45099184
_cell_angle_alpha   111.38348770
_cell_angle_beta   111.20874262
_cell_angle_gamma   106.05187545
_symmetry_Int_Tables_number   1
_chemical_formula_structural   Ti3V
_chemical_formula_sum   'Ti36 V12'
_cell_volume   773.87279117
_cell_formula_units_Z   12
loop_
 _symmetry_equiv_pos_site_id
 _symmetry_equiv_pos_as_xyz
  1  'x, y, z'
loop_
 _atom_site_type_symbol
 _atom_site_label
 _atom_site_symmetry_multiplicity
 _atom_site_fract_x
 _atom_site_fract_y
 _atom_site_fract_z
 _atom_site_occupancy
  Ti  Ti0  1  -0.00493033  0.00068772  0.00224678  1
  Ti  Ti1  1  0.02368995  0.02395321  0.36946136  1
  Ti  Ti2  1  -0.00069995  0.00146691  0.67166662  1
  Ti  Ti3  1  0.98057235  0.23453281  0.30069488  1
  Ti  Ti4  1  0.01355523  0.50702701  0.36687026  1
  Ti  Ti5  1  0.00139502  0.48839268  0.70380678  1
  Ti  Ti6  1  0.99765459  0.71963254  0.00196894  1
  Ti  Ti7  1  0.00435151  0.75690106  0.35346229  1
  Ti  Ti8  1  0.98319874  0.73004606  0.66691149  1
  Ti  Ti9  1  0.24186098  -0.00201393  0.95749090  1
  Ti  Ti10  1  0.24714819  0.99341274  0.30519798  1
  Ti  Ti11  1  0.24335946  0.25327391  0.02580672  1
  Ti  Ti12  1  0.26407926  0.25946967  0.38087317  1
  Ti  Ti13  1  0.25323634  0.50084696  -0.00098602  1
  Ti  Ti14  1  0.24289196  0.48449276  0.31722439  1
  Ti  Ti15  1  0.23472874  0.48479755  0.65264638  1
  Ti  Ti16  1  0.25914998  0.76709594  -0.00119198  1
  Ti  Ti17  1  0.24990698  0.74030187  0.31734290  1
  Ti  Ti18  1  0.27171991  0.77280990  0.67394755  1
  Ti  Ti19  1  0.51224165  0.00970871  0.04527299  1
  Ti  Ti20  1  0.49683929  -0.00197259  0.66463487  1
  Ti  Ti21  1  0.48536089  0.23229902  0.98901259  1
  Ti  Ti22  1  0.50452490  0.25469041  0.66545055  1
  Ti  Ti23  1  0.51746646  0.49445308  0.98451862  1
  Ti  Ti24  1  0.51437161  0.50866160  0.34088730  1
  Ti  Ti25  1  0.50267234  0.53186548  0.67601075  1
  Ti  Ti26  1  0.49857218  0.74363076  0.99805921  1
  Ti  Ti27  1  0.72214880  0.97555741  0.95919825  1
  Ti  Ti28  1  0.74949711  0.00439722  0.33794986  1
  Ti  Ti29  1  0.75823279  0.25647232  0.00464699  1
  Ti  Ti30  1  0.74394683  0.27527009  0.34536893  1
  Ti  Ti31  1  0.75782813  0.24454889  0.66602634  1
  Ti  Ti32  1  0.75072063  0.50336194  0.28573488  1
  Ti  Ti33  1  0.73706025  0.49698145  0.65154729  1
  Ti  Ti34  1  0.76451597  0.75514815  0.02102335  1
  Ti  Ti35  1  0.73246255  0.75253959  0.34691303  1
  V  V36  1  0.98210696  0.23359375  0.96097213  1
  V  V37  1  0.01320817  0.24583399  0.66582033  1
  V  V38  1  0.00371657  0.47479358  0.01924169  1
  V  V39  1  0.24329182  0.01560707  0.64115829  1
  V  V40  1  0.25782301  0.26040989  0.70881047  1
  V  V41  1  0.50163536  0.01102219  0.35203172  1
  V  V42  1  0.48168997  0.22943310  0.31736935  1
  V  V43  1  0.50424710  0.77212658  0.34579639  1
  V  V44  1  0.49489903  0.74519838  0.61830081  1
  V  V45  1  0.74250833  0.98699844  0.65580626  1
  V  V46  1  0.77889498  0.50665404  0.98903913  1
  V  V47  1  0.74064744  0.76358809  0.67795623  1
