# generated using pymatgen
data_TiV
_symmetry_space_group_name_H-M   'P 1'
_cell_length_a   10.45177460
_cell_length_b   10.83603406
_cell_length_c   8.19393939
_cell_angle_alpha   110.04056509
_cell_angle_beta   107.23327440
_cell_angle_gamma   109.53083831
_symmetry_Int_Tables_number   1
_chemical_formula_structural   TiV
_chemical_formula_sum   'Ti24 V24'
_cell_volume   727.85102721
_cell_formula_units_Z   24
loop_
 _symmetry_equiv_pos_site_id
 _symmetry_equiv_pos_as_xyz
  1  'x, y, z'
loop_
 _atom_site_type_symbol
 _atom_site_label
 _atom_site_symmetry_multiplicity
 _atom_site_fract_x
 _atom_site_fract_y
 _atom_site_fract_z
 _atom_site_occupancy
  Ti  Ti0  1  0.00378088  -0.01651000  0.00361943  1
  Ti  Ti1  1  -0.00476855  0.02568210  0.68412248  1
  Ti  Ti2  1  0.01326415  0.27629794  0.66635337  1
  Ti  Ti3  1  0.99364176  0.71589871  0.00567006  1
  Ti  Ti4  1  -0.00058333  0.74681942  0.67024762  1
  Ti  Ti5  1  0.24503312  0.99247433  0.32918287  1
  Ti  Ti6  1  0.23078696  0.97347884  0.67171734  1
  Ti  Ti7  1  0.24578318  0.24761399  0.33859848  1
  Ti  Ti8  1  0.25264088  0.23720364  0.68455563  1
  Ti  Ti9  1  0.25447322  0.50591781  0.33838291  1
  Ti  Ti10  1  0.25323270  0.49881783  0.67343084  1
  Ti  Ti11  1  0.25490187  0.75115934  0.99389178  1
  Ti  Ti12  1  0.49863371  0.99613281  0.00960038  1
  Ti  Ti13  1  0.49965159  0.00784242  0.66757501  1
  Ti  Ti14  1  0.49975591  0.25436980  0.00127085  1
  Ti  Ti15  1  0.50461700  0.26842807  0.65606031  1
  Ti  Ti16  1  0.49729290  0.75997947  0.69480397  1
  Ti  Ti17  1  0.76334275  0.02569104  0.97264462  1
  Ti  Ti18  1  0.75167476  0.00264760  0.31389995  1
  Ti  Ti19  1  0.75436623  0.23695949  0.67993816  1
  Ti  Ti20  1  0.73838128  0.48364931  0.65400375  1
  Ti  Ti21  1  0.74882779  0.75304750  0.99121152  1
  Ti  Ti22  1  0.75680624  0.75274732  0.32707492  1
  Ti  Ti23  1  0.72175199  0.72814841  0.63334977  1
  V  V24  1  0.00612567  0.01145281  0.34535754  1
  V  V25  1  0.00342201  0.26177381  0.00606859  1
  V  V26  1  0.99011623  0.25786991  0.32342455  1
  V  V27  1  0.01011914  0.49195735  0.01238049  1
  V  V28  1  0.99659879  0.50116995  0.33598878  1
  V  V29  1  -0.00779870  0.50024160  0.65380129  1
  V  V30  1  0.00364132  0.73728849  0.33452609  1
  V  V31  1  0.26717304  0.03107163  0.02827444  1
  V  V32  1  0.25540360  0.26821169  0.02599171  1
  V  V33  1  0.26904433  0.51008006  0.01987989  1
  V  V34  1  0.23814022  0.74504909  0.32652844  1
  V  V35  1  0.23285161  0.72713183  0.63244526  1
  V  V36  1  0.50716609  0.00232688  0.34230364  1
  V  V37  1  0.49822825  0.23667318  0.31689963  1
  V  V38  1  0.50535646  0.50612121  0.00360987  1
  V  V39  1  0.49662155  0.48545905  0.31072981  1
  V  V40  1  0.50373645  0.51249245  0.65438991  1
  V  V41  1  0.49967988  0.73360337  0.01679493  1
  V  V42  1  0.49175412  0.74609836  0.32071427  1
  V  V43  1  0.71949073  0.96969295  0.61094904  1
  V  V44  1  0.76860111  0.27803385  0.03317080  1
  V  V45  1  0.75645255  0.25988502  0.33631025  1
  V  V46  1  0.75773893  0.50361542  0.01587609  1
  V  V47  1  0.75304761  0.49820279  0.33237869  1
