# generated using pymatgen
data_Ti3V
_symmetry_space_group_name_H-M   'P 1'
_cell_length_a   11.02786984
_cell_length_b   10.99530164
_cell_length_c   8.43170204
_cell_angle_alpha   111.70590322
_cell_angle_beta   110.64360952
_cell_angle_gamma   107.54302122
_symmetry_Int_Tables_number   1
_chemical_formula_structural   Ti3V
_chemical_formula_sum   'Ti36 V12'
_cell_volume   771.51904108
_cell_formula_units_Z   12
loop_
 _symmetry_equiv_pos_site_id
 _symmetry_equiv_pos_as_xyz
  1  'x, y, z'
loop_
 _atom_site_type_symbol
 _atom_site_label
 _atom_site_symmetry_multiplicity
 _atom_site_fract_x
 _atom_site_fract_y
 _atom_site_fract_z
 _atom_site_occupancy
  V  V0  1  0.00173754  0.00781913  0.98331612  1
  V  V1  1  0.01041573  0.24192442  -0.00045469  1
  V  V2  1  0.00896894  0.25306831  0.35344878  1
  V  V3  1  0.99884523  0.25875199  0.67649252  1
  V  V4  1  0.98426662  0.48057154  0.66762957  1
  V  V5  1  0.23917308  0.97489300  0.27451487  1
  V  V6  1  0.23836059  0.25579100  0.01980033  1
  V  V7  1  0.21739223  0.48518289  0.64574557  1
  V  V8  1  0.51442427  0.51366403  0.01536841  1
  V  V9  1  0.77595349  0.25833030  0.33407602  1
  V  V10  1  0.75263656  0.51816306  0.64671430  1
  V  V11  1  0.76883973  0.77097975  0.72437643  1
  Ti  Ti12  1  0.01326894  0.00407493  0.32205089  1
  Ti  Ti13  1  0.01384138  0.01456896  0.66788936  1
  Ti  Ti14  1  0.99642135  0.48616797  0.01168861  1
  Ti  Ti15  1  0.00215822  0.49079893  0.36487955  1
  Ti  Ti16  1  -0.01597121  0.73948149  -0.00076487  1
  Ti  Ti17  1  -0.00944074  0.73816278  0.33720424  1
  Ti  Ti18  1  0.99078552  0.74067276  0.67391032  1
  Ti  Ti19  1  0.25382250  0.00668851  0.97566039  1
  Ti  Ti20  1  0.24743311  -0.00218927  0.61128805  1
  Ti  Ti21  1  0.23839125  0.22854518  0.32716501  1
  Ti  Ti22  1  0.25212620  0.26668833  0.69325564  1
  Ti  Ti23  1  0.24854482  0.49165144  0.99611927  1
  Ti  Ti24  1  0.24162844  0.48590353  0.33217422  1
  Ti  Ti25  1  0.24313880  0.74756484  0.98913394  1
  Ti  Ti26  1  0.25821113  0.75397395  0.33120772  1
  Ti  Ti27  1  0.25660845  0.75826842  0.66541415  1
  Ti  Ti28  1  0.52073583  0.01412466  0.06553709  1
  Ti  Ti29  1  0.49352930  0.00329677  0.37520576  1
  Ti  Ti30  1  0.50705332  0.00180806  0.72033456  1
  Ti  Ti31  1  0.47677047  0.24582130  -0.00658261  1
  Ti  Ti32  1  0.51494823  0.25827233  0.34735970  1
  Ti  Ti33  1  0.48361994  0.23385050  0.65368776  1
  Ti  Ti34  1  0.50431428  0.50562258  0.33266374  1
  Ti  Ti35  1  0.49602572  0.49809704  0.66288768  1
  Ti  Ti36  1  0.47141372  0.72389566  0.93270929  1
  Ti  Ti37  1  0.50491956  0.75312308  0.28577686  1
  Ti  Ti38  1  0.50940123  0.74686241  0.62614161  1
  Ti  Ti39  1  0.76217082  0.01069491  0.01431053  1
  Ti  Ti40  1  0.76132266  0.00985021  0.34844140  1
  Ti  Ti41  1  0.76044371  0.00924303  0.68176587  1
  Ti  Ti42  1  0.75994437  0.25832561  0.99358801  1
  Ti  Ti43  1  0.75244020  0.26039200  0.64575774  1
  Ti  Ti44  1  0.73999500  0.50010806  -0.04138987  1
  Ti  Ti45  1  0.74503835  0.48792159  0.30073833  1
  Ti  Ti46  1  0.74058838  0.75719135  0.03669992  1
  Ti  Ti47  1  0.75334278  0.75133666  0.38506192  1
