# generated using pymatgen
data_FeNi
_symmetry_space_group_name_H-M   'P 1'
_cell_length_a   7.06606158
_cell_length_b   7.06650440
_cell_length_c   7.09945667
_cell_angle_alpha   90.14094735
_cell_angle_beta   90.21489686
_cell_angle_gamma   89.93798177
_symmetry_Int_Tables_number   1
_chemical_formula_structural   FeNi
_chemical_formula_sum   'Fe16 Ni16'
_cell_volume   354.48882214
_cell_formula_units_Z   16
loop_
 _symmetry_equiv_pos_site_id
 _symmetry_equiv_pos_as_xyz
  1  'x, y, z'
loop_
 _atom_site_type_symbol
 _atom_site_label
 _atom_site_symmetry_multiplicity
 _atom_site_fract_x
 _atom_site_fract_y
 _atom_site_fract_z
 _atom_site_occupancy
  Fe  Fe0  1  0.00344336  0.50270756  -0.00067380  1
  Fe  Fe1  1  0.99957725  0.74630075  0.24985650  1
  Fe  Fe2  1  0.25003285  0.75231378  0.99789946  1
  Fe  Fe3  1  0.24796726  0.24969180  0.99922135  1
  Fe  Fe4  1  0.25001915  0.50174508  0.25607006  1
  Fe  Fe5  1  0.25079273  0.75099361  0.49970201  1
  Fe  Fe6  1  0.50484385  0.75101696  0.25040410  1
  Fe  Fe7  1  0.99597839  0.00074152  0.49982499  1
  Fe  Fe8  1  0.25018610  0.99720239  0.25556174  1
  Fe  Fe9  1  0.49871921  0.99953200  0.00135801  1
  Fe  Fe10  1  0.49896375  0.74713361  0.74743854  1
  Fe  Fe11  1  0.74934325  0.25322823  -0.00010947  1
  Fe  Fe12  1  0.74746257  0.49586535  0.24839550  1
  Fe  Fe13  1  0.50299587  0.00139084  0.49967335  1
  Fe  Fe14  1  0.50306754  0.25416894  0.75132268  1
  Fe  Fe15  1  0.75223856  0.00222624  0.24479890  1
  Ni  Ni16  1  0.00175164  0.99959801  0.00122588  1
  Ni  Ni17  1  0.00179527  0.24868438  0.24976894  1
  Ni  Ni18  1  0.99869138  0.49997247  0.49935885  1
  Ni  Ni19  1  0.00110810  0.75172806  0.74979031  1
  Ni  Ni20  1  0.49694827  0.50131450  -0.00044148  1
  Ni  Ni21  1  0.75062167  0.74814247  0.99917798  1
  Ni  Ni22  1  0.99823350  0.24961938  0.75105111  1
  Ni  Ni23  1  0.24965713  0.24842296  0.49969563  1
  Ni  Ni24  1  0.24842941  0.49946138  0.75054457  1
  Ni  Ni25  1  0.49701317  0.24734166  0.25079590  1
  Ni  Ni26  1  0.50105929  0.49998146  0.49981221  1
  Ni  Ni27  1  0.75023733  0.75076384  0.49944942  1
  Ni  Ni28  1  0.25150159  0.00141601  0.74858202  1
  Ni  Ni29  1  0.74929373  0.24769131  0.49934882  1
  Ni  Ni30  1  0.74995007  0.50041549  0.75037222  1
  Ni  Ni31  1  0.74807677  0.99918796  0.75072374  1
