# generated using pymatgen
data_FeNi
_symmetry_space_group_name_H-M   'P 1'
_cell_length_a   10.05472792
_cell_length_b   10.02350938
_cell_length_c   4.95429377
_cell_angle_alpha   101.49047008
_cell_angle_beta   101.63785154
_cell_angle_gamma   48.49504976
_symmetry_Int_Tables_number   1
_chemical_formula_structural   FeNi
_chemical_formula_sum   'Fe16 Ni16'
_cell_volume   364.78235614
_cell_formula_units_Z   16
loop_
 _symmetry_equiv_pos_site_id
 _symmetry_equiv_pos_as_xyz
  1  'x, y, z'
loop_
 _atom_site_type_symbol
 _atom_site_label
 _atom_site_symmetry_multiplicity
 _atom_site_fract_x
 _atom_site_fract_y
 _atom_site_fract_z
 _atom_site_occupancy
  Fe  Fe0  1  0.99147601  0.99629519  0.51848520  1
  Fe  Fe1  1  0.99258996  0.99223842  0.01980862  1
  Fe  Fe2  1  0.23362708  0.24417366  0.79709523  1
  Fe  Fe3  1  0.37001716  0.36588762  0.64517143  1
  Fe  Fe4  1  0.18910578  0.69178974  0.78630857  1
  Fe  Fe5  1  0.36795986  0.36269969  0.14250348  1
  Fe  Fe6  1  0.19245175  0.68972700  0.28935661  1
  Fe  Fe7  1  0.49690780  0.49131907  0.52148451  1
  Fe  Fe8  1  0.31537361  0.82102932  0.68993846  1
  Fe  Fe9  1  0.82528659  0.31832597  0.67096842  1
  Fe  Fe10  1  0.61965787  0.62151597  0.92149328  1
  Fe  Fe11  1  0.31633549  0.82171871  0.18961120  1
  Fe  Fe12  1  0.82409744  0.31872830  0.16686159  1
  Fe  Fe13  1  0.45029638  0.94723851  0.52876087  1
  Fe  Fe14  1  0.74725088  0.73928666  0.30208969  1
  Fe  Fe15  1  0.86221547  0.86968059  0.14133785  1
  Ni  Ni16  1  0.12029066  0.11707236  0.94397188  1
  Ni  Ni17  1  0.11982478  0.11914551  0.44141929  1
  Ni  Ni18  1  0.06711138  0.56962781  0.87816821  1
  Ni  Ni19  1  0.56863162  0.07084363  0.87345300  1
  Ni  Ni20  1  0.24125577  0.24171864  0.29988418  1
  Ni  Ni21  1  0.07066380  0.56601277  0.38121141  1
  Ni  Ni22  1  0.56977567  0.07140357  0.37919174  1
  Ni  Ni23  1  0.69602473  0.19285538  0.75565483  1
  Ni  Ni24  1  0.69234754  0.19873857  0.25359187  1
  Ni  Ni25  1  0.49418735  0.49505399  0.02820476  1
  Ni  Ni26  1  0.61734317  0.61895757  0.41977640  1
  Ni  Ni27  1  0.94516197  0.44625998  0.52070612  1
  Ni  Ni28  1  0.74163397  0.73908742  0.79659678  1
  Ni  Ni29  1  0.44935775  0.94708052  0.02778853  1
  Ni  Ni30  1  0.94620663  0.44751857  0.02307181  1
  Ni  Ni31  1  0.86553411  0.86696932  0.64603420  1
