# generated using pymatgen
data_AlGaN2
_symmetry_space_group_name_H-M   'P 1'
_cell_length_a   8.16507786
_cell_length_b   8.16108375
_cell_length_c   5.49240552
_cell_angle_alpha   89.99631635
_cell_angle_beta   89.99721272
_cell_angle_gamma   101.98084498
_symmetry_Int_Tables_number   1
_chemical_formula_structural   AlGaN2
_chemical_formula_sum   'Al8 Ga8 N16'
_cell_volume   358.01892874
_cell_formula_units_Z   8
loop_
 _symmetry_equiv_pos_site_id
 _symmetry_equiv_pos_as_xyz
  1  'x, y, z'
loop_
 _atom_site_type_symbol
 _atom_site_label
 _atom_site_symmetry_multiplicity
 _atom_site_fract_x
 _atom_site_fract_y
 _atom_site_fract_z
 _atom_site_occupancy
  Al  Al0  1  0.24693920  0.74854133  0.33325337  1
  Al  Al1  1  0.63005451  0.37852710  0.83356625  1
  Al  Al2  1  0.99983698  0.00009263  0.33283318  1
  Al  Al3  1  0.87706977  0.12736282  0.83366170  1
  Al  Al4  1  0.87809214  0.62649468  0.16732809  1
  Al  Al5  1  0.75365944  0.75079250  0.66639768  1
  Al  Al6  1  0.12311083  0.37664467  0.16695684  1
  Al  Al7  1  0.99932652  0.50100344  0.66656823  1
  Ga  Ga8  1  0.50187178  0.50135741  0.33362197  1
  Ga  Ga9  1  0.37488124  0.62424952  0.83306907  1
  Ga  Ga10  1  0.75466224  0.25303519  0.33339533  1
  Ga  Ga11  1  0.12179550  0.87362937  0.83290837  1
  Ga  Ga12  1  0.37357735  0.12525977  0.16601380  1
  Ga  Ga13  1  0.62848602  0.87464179  0.16617179  1
  Ga  Ga14  1  0.50228841  0.00063148  0.66721240  1
  Ga  Ga15  1  0.24814322  0.25101638  0.66702070  1
  N  N16  1  0.05995506  0.56000470  0.33506355  1
  N  N17  1  0.30605682  0.31432020  0.32898682  1
  N  N18  1  0.17851012  0.43691447  0.83795583  1
  N  N19  1  0.56339066  0.06322040  0.33142340  1
  N  N20  1  0.44181678  0.19316469  0.83221567  1
  N  N21  1  0.81746800  0.80903226  0.33777352  1
  N  N22  1  0.69476646  0.93657813  0.82888113  1
  N  N23  1  0.93122920  0.68024687  0.83432973  1
  N  N24  1  0.18175024  0.93181894  0.17365922  1
  N  N25  1  0.43116069  0.68915069  0.17104473  1
  N  N26  1  0.30892095  0.81015274  0.65884817  1
  N  N27  1  0.69140237  0.44128729  0.15982585  1
  N  N28  1  0.56855013  0.56280156  0.67099017  1
  N  N29  1  0.94233446  0.18406135  0.16228526  1
  N  N30  1  0.81424764  0.31314596  0.67484286  1
  N  N31  1  0.05464526  0.06081967  0.66189530  1
