# generated using pymatgen
data_AlGa3N4
_symmetry_space_group_name_H-M   'P 1'
_cell_length_a   7.58886195
_cell_length_b   7.58653617
_cell_length_c   6.38868872
_cell_angle_alpha   89.99489114
_cell_angle_beta   90.00282036
_cell_angle_gamma   93.63031545
_symmetry_Int_Tables_number   1
_chemical_formula_structural   AlGa3N4
_chemical_formula_sum   'Al4 Ga12 N16'
_cell_volume   367.07902205
_cell_formula_units_Z   4
loop_
 _symmetry_equiv_pos_site_id
 _symmetry_equiv_pos_as_xyz
  1  'x, y, z'
loop_
 _atom_site_type_symbol
 _atom_site_label
 _atom_site_symmetry_multiplicity
 _atom_site_fract_x
 _atom_site_fract_y
 _atom_site_fract_z
 _atom_site_occupancy
  Al  Al0  1  0.83306608  0.16464621  0.99914591  1
  Al  Al1  1  0.08202742  0.91752277  0.75094231  1
  Al  Al2  1  0.66810676  0.83599688  0.24889882  1
  Al  Al3  1  0.67032909  0.83624211  0.75104839  1
  Ga  Ga4  1  0.33606619  0.66905565  0.50103596  1
  Ga  Ga5  1  0.83279161  0.16431706  0.50080049  1
  Ga  Ga6  1  0.58507649  0.41815726  0.24908753  1
  Ga  Ga7  1  0.33567915  0.66904051  0.99895215  1
  Ga  Ga8  1  0.58470307  0.41823975  0.75088319  1
  Ga  Ga9  1  0.08198984  0.91706329  0.24894159  1
  Ga  Ga10  1  0.41718271  0.08152270  0.50053264  1
  Ga  Ga11  1  0.91663825  0.58661177  0.50104170  1
  Ga  Ga12  1  0.41914658  0.08175321  0.99946201  1
  Ga  Ga13  1  0.91603577  0.58486293  0.99896088  1
  Ga  Ga14  1  0.16553628  0.33313401  0.24949695  1
  Ga  Ga15  1  0.16509134  0.33147995  0.75064968  1
  N  N16  1  0.14551420  0.47908624  0.50060588  1
  N  N17  1  0.64531947  0.97014167  0.49999138  1
  N  N18  1  0.39525531  0.22780093  0.24992691  1
  N  N19  1  0.14588456  0.48000589  0.99947587  1
  N  N20  1  0.65117472  0.97590270  0.99996406  1
  N  N21  1  0.39565401  0.22871791  0.75004232  1
  N  N22  1  0.88872308  0.73060492  0.24943313  1
  N  N23  1  0.89462232  0.73631570  0.75056637  1
  N  N24  1  0.22245749  0.89578827  0.50589997  1
  N  N25  1  0.72948099  0.39448271  0.50060128  1
  N  N26  1  0.48391317  0.65150967  0.24936050  1
  N  N27  1  0.22464865  0.89595192  0.99392195  1
  N  N28  1  0.73208833  0.38810735  0.99935706  1
  N  N29  1  0.48624125  0.65166765  0.75066498  1
  N  N30  1  0.97343048  0.14540734  0.24411848  1
  N  N31  1  0.97612536  0.13886308  0.75618969  1
