# generated using pymatgen
data_AlGa3N4
_symmetry_space_group_name_H-M   'P 1'
_cell_length_a   8.23348342
_cell_length_b   8.23274841
_cell_length_c   5.53205340
_cell_angle_alpha   89.99400574
_cell_angle_beta   89.99501629
_cell_angle_gamma   101.79525218
_symmetry_Int_Tables_number   1
_chemical_formula_structural   AlGa3N4
_chemical_formula_sum   'Al4 Ga12 N16'
_cell_volume   367.06772043
_cell_formula_units_Z   4
loop_
 _symmetry_equiv_pos_site_id
 _symmetry_equiv_pos_as_xyz
  1  'x, y, z'
loop_
 _atom_site_type_symbol
 _atom_site_label
 _atom_site_symmetry_multiplicity
 _atom_site_fract_x
 _atom_site_fract_y
 _atom_site_fract_z
 _atom_site_occupancy
  Al  Al0  1  0.62938056  0.37667222  0.83403297  1
  Al  Al1  1  0.87558137  0.12826962  0.83226529  1
  Al  Al2  1  0.87578054  0.62402019  0.16602558  1
  Al  Al3  1  0.99807129  0.49983215  0.66735193  1
  Ga  Ga4  1  0.24801900  0.74868849  0.33419469  1
  Ga  Ga5  1  0.50290338  0.50015939  0.33275979  1
  Ga  Ga6  1  0.37506891  0.62379325  0.83235687  1
  Ga  Ga7  1  0.75218659  0.25322295  0.33427748  1
  Ga  Ga8  1  0.99897885  0.00013758  0.33299721  1
  Ga  Ga9  1  0.12284599  0.87395342  0.83350506  1
  Ga  Ga10  1  0.37640861  0.12631588  0.16522196  1
  Ga  Ga11  1  0.62739050  0.87573524  0.16554851  1
  Ga  Ga12  1  0.50215688  0.00225911  0.66771729  1
  Ga  Ga13  1  0.75201843  0.74915921  0.66766245  1
  Ga  Ga14  1  0.12295789  0.37639871  0.16625470  1
  Ga  Ga15  1  0.24996633  0.25098165  0.66775046  1
  N  N16  1  0.05336748  0.56070187  0.33966830  1
  N  N17  1  0.31090677  0.31262165  0.33231576  1
  N  N18  1  0.18071206  0.43882716  0.82870170  1
  N  N19  1  0.56342145  0.06293800  0.33317750  1
  N  N20  1  0.44285747  0.19377717  0.83290441  1
  N  N21  1  0.81350068  0.80529090  0.32928646  1
  N  N22  1  0.69328700  0.94164303  0.83163388  1
  N  N23  1  0.93700235  0.67931096  0.83883100  1
  N  N24  1  0.18689601  0.93705248  0.16664205  1
  N  N25  1  0.43626534  0.68662707  0.16700413  1
  N  N26  1  0.31234178  0.81288319  0.66736800  1
  N  N27  1  0.69095178  0.44023115  0.15835952  1
  N  N28  1  0.56399015  0.55673225  0.67087975  1
  N  N29  1  0.93462346  0.18495985  0.15864215  1
  N  N30  1  0.81373744  0.31378979  0.67408530  1
  N  N31  1  0.05642363  0.06301443  0.67057787  1
