# generated using pymatgen
data_ZrTiC2
_symmetry_space_group_name_H-M   'P 1'
_cell_length_a   6.42351616
_cell_length_b   6.42168640
_cell_length_c   9.07823801
_cell_angle_alpha   90.01733597
_cell_angle_beta   90.00856094
_cell_angle_gamma   90.00379016
_symmetry_Int_Tables_number   1
_chemical_formula_structural   ZrTiC2
_chemical_formula_sum   'Zr8 Ti8 C16'
_cell_volume   374.47553801
_cell_formula_units_Z   8
loop_
 _symmetry_equiv_pos_site_id
 _symmetry_equiv_pos_as_xyz
  1  'x, y, z'
loop_
 _atom_site_type_symbol
 _atom_site_label
 _atom_site_symmetry_multiplicity
 _atom_site_fract_x
 _atom_site_fract_y
 _atom_site_fract_z
 _atom_site_occupancy
  C  C0  1  0.75638926  0.75629869  0.50711224  1
  C  C1  1  0.75648451  0.24355283  0.50361343  1
  C  C2  1  0.24412768  0.75589320  0.50729454  1
  C  C3  1  0.24412264  0.24403263  0.50186482  1
  C  C4  1  0.50560442  0.49507568  0.24827927  1
  C  C5  1  0.50594450  0.00569050  0.24238973  1
  C  C6  1  0.75572319  0.75602407  0.99234353  1
  C  C7  1  0.75574668  0.24387031  0.99723620  1
  C  C8  1  0.99384396  0.49482029  0.24240346  1
  C  C9  1  0.99343026  0.00608548  0.24675378  1
  C  C10  1  0.24416941  0.75540713  0.99214473  1
  C  C11  1  0.24410295  0.24448025  0.99830814  1
  C  C12  1  0.50560681  0.50463711  0.75145524  1
  C  C13  1  0.50624793  0.99526646  0.75805440  1
  C  C14  1  0.99452890  0.50509254  0.75808328  1
  C  C15  1  0.99389701  0.99456267  0.75251159  1
  Ti  Ti16  1  0.75213768  0.24627958  0.75477595  1
  Ti  Ti17  1  0.75249066  0.75227202  0.75430637  1
  Ti  Ti18  1  0.24636232  0.75181649  0.75424249  1
  Ti  Ti19  1  0.75226597  0.24783275  0.24458322  1
  Ti  Ti20  1  0.99762895  0.99978073  0.50519094  1
  Ti  Ti21  1  0.50355141  0.99992610  0.99587994  1
  Ti  Ti22  1  0.99757690  0.99983463  0.99520001  1
  Ti  Ti23  1  0.99798193  0.50006618  0.99596211  1
  Zr  Zr24  1  0.24742307  0.24712545  0.75340179  1
  Zr  Zr25  1  0.50266791  0.99984140  0.50411919  1
  Zr  Zr26  1  0.50255503  0.50008628  0.50334525  1
  Zr  Zr27  1  0.75185719  0.75290807  0.24598897  1
  Zr  Zr28  1  0.99810015  0.50013152  0.50411149  1
  Zr  Zr29  1  0.24731795  0.24839370  0.24659067  1
  Zr  Zr30  1  0.24744255  0.75281886  0.24593798  1
  Zr  Zr31  1  0.50267020  0.50009639  0.99651523  1
