# generated using pymatgen
data_Zr3TiC4
_symmetry_space_group_name_H-M   'P 1'
_cell_length_a   7.31955052
_cell_length_b   7.32464308
_cell_length_c   8.65726109
_cell_angle_alpha   75.23629815
_cell_angle_beta   64.96081252
_cell_angle_gamma   72.52050749
_symmetry_Int_Tables_number   1
_chemical_formula_structural   Zr3TiC4
_chemical_formula_sum   'Zr12 Ti4 C16'
_cell_volume   396.70004107
_cell_formula_units_Z   4
loop_
 _symmetry_equiv_pos_site_id
 _symmetry_equiv_pos_as_xyz
  1  'x, y, z'
loop_
 _atom_site_type_symbol
 _atom_site_label
 _atom_site_symmetry_multiplicity
 _atom_site_fract_x
 _atom_site_fract_y
 _atom_site_fract_z
 _atom_site_occupancy
  C  C0  1  0.84311455  0.40629069  0.46973886  1
  C  C1  1  0.15434193  0.59093669  0.53815725  1
  C  C2  1  0.28562958  0.46584366  0.14589293  1
  C  C3  1  0.46389380  0.78390154  0.60447891  1
  C  C4  1  0.77315640  0.97159687  0.65780009  1
  C  C5  1  0.10099162  0.16083287  0.72026186  1
  C  C6  1  0.59359242  0.65532298  0.21885277  1
  C  C7  1  0.90714780  0.84391369  0.27997748  1
  C  C8  1  0.22063844  0.03426795  0.33769257  1
  C  C9  1  0.39530421  0.34242861  0.78987337  1
  C  C10  1  0.71632448  0.53114012  0.84478814  1
  C  C11  1  0.04170043  0.71033500  0.90222841  1
  C  C12  1  0.34607138  0.90975824  0.96127859  1
  C  C13  1  0.52853893  0.21610060  0.41327787  1
  C  C14  1  0.64857732  0.09572141  0.03138306  1
  C  C15  1  0.98061833  0.28208183  0.08420629  1
  Ti  Ti16  1  0.06825192  0.43434393  0.81353733  1
  Ti  Ti17  1  0.37332781  0.62407422  0.87484918  1
  Ti  Ti18  1  0.31281731  0.19049870  0.05747879  1
  Ti  Ti19  1  0.43404505  0.06248621  0.69193073  1
  Zr  Zr20  1  0.49585835  0.49853954  0.50626750  1
  Zr  Zr21  1  0.68589668  0.81256953  0.93590676  1
  Zr  Zr22  1  0.00524226  0.00080444  0.99627671  1
  Zr  Zr23  1  0.80942334  0.68745167  0.56642077  1
  Zr  Zr24  1  0.12568286  0.87479527  0.62697773  1
  Zr  Zr25  1  0.62571180  0.37493929  0.12245313  1
  Zr  Zr26  1  0.94253615  0.56051322  0.18284546  1
  Zr  Zr27  1  0.25144194  0.75077409  0.24638334  1
  Zr  Zr28  1  0.56067815  0.93834659  0.31404686  1
  Zr  Zr29  1  0.74526056  0.25146391  0.75267207  1
  Zr  Zr30  1  0.87546511  0.12564779  0.37395496  1
  Zr  Zr31  1  0.18871905  0.31227884  0.43811027  1
