# generated using pymatgen
data_ZrTi7C8
_symmetry_space_group_name_H-M   'P 1'
_cell_length_a   5.37222628
_cell_length_b   6.94525746
_cell_length_c   9.30780905
_cell_angle_alpha   98.59670676
_cell_angle_beta   95.48626665
_cell_angle_gamma   97.42607284
_symmetry_Int_Tables_number   1
_chemical_formula_structural   ZrTi7C8
_chemical_formula_sum   'Zr2 Ti14 C16'
_cell_volume   338.15901219
_cell_formula_units_Z   2
loop_
 _symmetry_equiv_pos_site_id
 _symmetry_equiv_pos_as_xyz
  1  'x, y, z'
loop_
 _atom_site_type_symbol
 _atom_site_label
 _atom_site_symmetry_multiplicity
 _atom_site_fract_x
 _atom_site_fract_y
 _atom_site_fract_z
 _atom_site_occupancy
  C  C0  1  0.12365728  0.22024843  0.53916950  1
  C  C1  1  0.87303753  0.78245856  0.47642976  1
  C  C2  1  0.12500000  0.46875000  0.28125000  1
  C  C3  1  0.86161218  0.03511499  0.21424459  1
  C  C4  1  0.87346215  0.28084214  0.96686191  1
  C  C5  1  0.62571625  0.09416906  0.65781581  1
  C  C6  1  0.37653785  0.65665786  0.59563809  1
  C  C7  1  0.63600440  0.34823694  0.41071794  1
  C  C8  1  0.38838782  0.90238501  0.34825541  1
  C  C9  1  0.37696247  0.15504144  0.08607024  1
  C  C10  1  0.12634272  0.71725157  0.02333050  1
  C  C11  1  0.37496910  0.40598607  0.84278914  1
  C  C12  1  0.12500000  0.96875000  0.78125000  1
  C  C13  1  0.87503090  0.53151393  0.71971086  1
  C  C14  1  0.61399560  0.58926306  0.15178206  1
  C  C15  1  0.62428375  0.84333094  0.90468419  1
  Ti  Ti16  1  0.74964626  0.81271009  0.68950639  1
  Ti  Ti17  1  0.50164399  0.37632874  0.62812885  1
  Ti  Ti18  1  0.75109366  0.06376649  0.44247787  1
  Ti  Ti19  1  0.50169938  0.62473094  0.37815267  1
  Ti  Ti20  1  0.49890634  0.87373351  0.12002213  1
  Ti  Ti21  1  0.25054800  0.68721327  0.81116551  1
  Ti  Ti22  1  0.99945200  0.25028673  0.75133449  1
  Ti  Ti23  1  0.25138840  0.93719520  0.56706117  1
  Ti  Ti24  1  0.00067101  0.50138042  0.50443434  1
  Ti  Ti25  1  0.74830062  0.31276906  0.18434733  1
  Ti  Ti26  1  0.99861160  0.00030480  0.99543883  1
  Ti  Ti27  1  0.74835601  0.56117126  0.93437115  1
  Ti  Ti28  1  0.50035374  0.12478991  0.87299361  1
  Ti  Ti29  1  0.24932899  0.43611958  0.05806566  1
  Zr  Zr30  1  0.99715417  0.74961377  0.24903724  1
  Zr  Zr31  1  0.25284583  0.18788623  0.31346276  1
