# generated using pymatgen
data_Zr3Ti5C8
_symmetry_space_group_name_H-M   'P 1'
_cell_length_a   10.53120815
_cell_length_b   3.17661142
_cell_length_c   10.99013067
_cell_angle_alpha   90.00000000
_cell_angle_beta   99.95075736
_cell_angle_gamma   90.00000000
_symmetry_Int_Tables_number   1
_chemical_formula_structural   Zr3Ti5C8
_chemical_formula_sum   'Zr6 Ti10 C16'
_cell_volume   362.12812306
_cell_formula_units_Z   2
loop_
 _symmetry_equiv_pos_site_id
 _symmetry_equiv_pos_as_xyz
  1  'x, y, z'
loop_
 _atom_site_type_symbol
 _atom_site_label
 _atom_site_symmetry_multiplicity
 _atom_site_fract_x
 _atom_site_fract_y
 _atom_site_fract_z
 _atom_site_occupancy
  C  C0  1  0.37687022  0.00000000  0.56260386  1
  C  C1  1  0.36890804  0.50000000  0.81562777  1
  C  C2  1  0.13207113  0.00000000  0.68365614  1
  C  C3  1  0.87524459  0.00000000  0.81126603  1
  C  C4  1  0.38368761  0.00000000  0.06006335  1
  C  C5  1  0.38697785  0.50000000  0.31444467  1
  C  C6  1  0.12161544  0.00000000  0.18289875  1
  C  C7  1  0.12113920  0.50000000  0.44578969  1
  C  C8  1  0.86510204  0.00000000  0.31680458  1
  C  C9  1  0.87012535  0.50000000  0.55588309  1
  C  C10  1  0.62500766  0.00000000  0.43664902  1
  C  C11  1  0.62748301  0.50000000  0.67827481  1
  C  C12  1  0.12510680  0.50000000  0.93621227  1
  C  C13  1  0.87312311  0.50000000  0.06360741  1
  C  C14  1  0.62192783  0.00000000  0.94710543  1
  C  C15  1  0.62586007  0.50000000  0.18929578  1
  Ti  Ti16  1  0.25081513  0.50000000  0.62577437  1
  Ti  Ti17  1  0.99604855  0.00000000  0.49999769  1
  Ti  Ti18  1  0.74832086  0.00000000  0.61835366  1
  Ti  Ti19  1  0.25053501  0.00000000  0.87367878  1
  Ti  Ti20  1  0.99976807  0.00000000  0.99925505  1
  Ti  Ti21  1  0.74675122  0.00000000  0.12849605  1
  Ti  Ti22  1  0.74585325  0.50000000  0.37528086  1
  Ti  Ti23  1  0.50601247  0.00000000  0.25182318  1
  Ti  Ti24  1  0.50337932  0.50000000  0.49851582  1
  Ti  Ti25  1  0.50189605  0.50000000  0.00422376  1
  Zr  Zr26  1  0.25221542  0.00000000  0.37773124  1
  Zr  Zr27  1  0.25435711  0.50000000  0.12221772  1
  Zr  Zr28  1  0.99450939  0.50000000  0.25162262  1
  Zr  Zr29  1  0.00149517  0.50000000  0.74626970  1
  Zr  Zr30  1  0.74954506  0.50000000  0.87662227  1
  Zr  Zr31  1  0.49824796  0.00000000  0.74995460  1
