# generated using pymatgen
data_Zr5Ti3C8
_symmetry_space_group_name_H-M   'P 1'
_cell_length_a   5.61620997
_cell_length_b   7.25498111
_cell_length_c   10.24117481
_cell_angle_alpha   106.46499945
_cell_angle_beta   89.92770615
_cell_angle_gamma   105.02968136
_symmetry_Int_Tables_number   1
_chemical_formula_structural   Zr5Ti3C8
_chemical_formula_sum   'Zr10 Ti6 C16'
_cell_volume   385.30384420
_cell_formula_units_Z   2
loop_
 _symmetry_equiv_pos_site_id
 _symmetry_equiv_pos_as_xyz
  1  'x, y, z'
loop_
 _atom_site_type_symbol
 _atom_site_label
 _atom_site_symmetry_multiplicity
 _atom_site_fract_x
 _atom_site_fract_y
 _atom_site_fract_z
 _atom_site_occupancy
  C  C0  1  0.13390293  0.37998226  0.38093394  1
  C  C1  1  0.31673361  0.43866050  0.68212200  1
  C  C2  1  0.50062292  0.49194609  0.99637552  1
  C  C3  1  0.25985666  0.75430748  0.25455685  1
  C  C4  1  0.68319821  0.57044324  0.32065317  1
  C  C5  1  0.44729427  0.81684236  0.56684220  1
  C  C6  1  0.19387227  0.05452702  0.80431165  1
  C  C7  1  0.87247138  0.63327298  0.62644316  1
  C  C8  1  0.61814761  0.87906427  0.86630792  1
  C  C9  1  0.37810630  0.12529894  0.12089542  1
  C  C10  1  0.06666694  0.68729646  0.93056303  1
  C  C11  1  0.80936408  0.93733889  0.19225627  1
  C  C12  1  0.55859577  0.18601324  0.44453211  1
  C  C13  1  0.99528704  0.99968435  0.50650005  1
  C  C14  1  0.73633875  0.23680901  0.74836292  1
  C  C15  1  0.92872242  0.30829705  0.05822618  1
  Ti  Ti16  1  0.50066870  0.50568277  0.50377991  1
  Ti  Ti17  1  0.62478285  0.87619099  0.38070757  1
  Ti  Ti18  1  0.80824325  0.93546677  0.68514522  1
  Ti  Ti19  1  0.56081134  0.18249151  0.93185035  1
  Ti  Ti20  1  0.25438245  0.75426272  0.74737256  1
  Ti  Ti21  1  0.37698115  0.12093547  0.62600786  1
  Zr  Zr22  1  0.68501278  0.56129382  0.80836812  1
  Zr  Zr23  1  0.87453817  0.62486442  0.12552991  1
  Zr  Zr24  1  0.06557332  0.69303164  0.44312779  1
  Zr  Zr25  1  0.99995543  0.99884276  0.99475563  1
  Zr  Zr26  1  0.74805731  0.25137709  0.25332007  1
  Zr  Zr27  1  0.43889723  0.81291306  0.05986023  1
  Zr  Zr28  1  0.18906252  0.06387628  0.31715685  1
  Zr  Zr29  1  0.93533297  0.31228662  0.56491264  1
  Zr  Zr30  1  0.12433228  0.36849061  0.86962956  1
  Zr  Zr31  1  0.31418710  0.43820933  0.18859330  1
