# generated using pymatgen
data_Hf3Ti5C8
_symmetry_space_group_name_H-M   'P 1'
_cell_length_a   5.46202500
_cell_length_b   6.31537202
_cell_length_c   11.37900570
_cell_angle_alpha   73.92716818
_cell_angle_beta   76.18405544
_cell_angle_gamma   73.26834346
_symmetry_Int_Tables_number   1
_chemical_formula_structural   Hf3Ti5C8
_chemical_formula_sum   'Hf6 Ti10 C16'
_cell_volume   355.76490694
_cell_formula_units_Z   2
loop_
 _symmetry_equiv_pos_site_id
 _symmetry_equiv_pos_as_xyz
  1  'x, y, z'
loop_
 _atom_site_type_symbol
 _atom_site_label
 _atom_site_symmetry_multiplicity
 _atom_site_fract_x
 _atom_site_fract_y
 _atom_site_fract_z
 _atom_site_occupancy
  C  C0  1  0.74510971  0.71558758  0.68587838  1
  C  C1  1  0.25504785  0.53335099  0.81652873  1
  C  C2  1  0.74548656  0.60244169  0.43316054  1
  C  C3  1  0.25463384  0.77488679  0.31183730  1
  C  C4  1  0.74591941  0.22532303  0.68588327  1
  C  C5  1  0.25362230  0.41815905  0.55701391  1
  C  C6  1  0.25027324  0.02234323  0.81955086  1
  C  C7  1  0.74533035  0.47591614  0.18614541  1
  C  C8  1  0.24944191  0.65548526  0.06449885  1
  C  C9  1  0.74511029  0.09129346  0.43399463  1
  C  C10  1  0.25896288  0.28766901  0.30749487  1
  C  C11  1  0.25321859  0.89816318  0.55683997  1
  C  C12  1  0.75080553  0.34583911  0.94510852  1
  C  C13  1  0.74580178  0.96421636  0.18638666  1
  C  C14  1  0.25026956  0.15498912  0.06446914  1
  C  C15  1  0.75077103  0.83424678  0.94534699  1
  Hf  Hf16  1  0.00049356  0.25464128  0.49526116  1
  Hf  Hf17  1  0.49886198  0.06150764  0.62287139  1
  Hf  Hf18  1  0.99959109  0.12457438  0.24832821  1
  Hf  Hf19  1  0.50100308  0.18599451  0.87991631  1
  Hf  Hf20  1  0.99932106  0.87111122  0.75187390  1
  Hf  Hf21  1  0.00048454  0.37710478  0.75187603  1
  Ti  Ti22  1  0.49908895  0.31518317  0.12592321  1
  Ti  Ti23  1  0.00208611  0.74955556  0.49619083  1
  Ti  Ti24  1  0.50280021  0.93435858  0.37180663  1
  Ti  Ti25  1  0.50132399  0.56595957  0.62142429  1
  Ti  Ti26  1  0.00005259  0.99485603  0.00448169  1
  Ti  Ti27  1  0.00027238  0.62716103  0.24768918  1
  Ti  Ti28  1  0.50058861  0.80928107  0.12673625  1
  Ti  Ti29  1  0.49940832  0.44350546  0.37083865  1
  Ti  Ti30  1  0.99778368  0.50088917  0.00392732  1
  Ti  Ti31  1  0.49703502  0.68440578  0.88071693  1
