# generated using pymatgen
data_HfTiC2
_symmetry_space_group_name_H-M   'P 1'
_cell_length_a   6.37432601
_cell_length_b   6.37432601
_cell_length_c   9.01098092
_cell_angle_alpha   89.99213283
_cell_angle_beta   89.99213289
_cell_angle_gamma   89.94212145
_symmetry_Int_Tables_number   1
_chemical_formula_structural   HfTiC2
_chemical_formula_sum   'Hf8 Ti8 C16'
_cell_volume   366.13427225
_cell_formula_units_Z   8
loop_
 _symmetry_equiv_pos_site_id
 _symmetry_equiv_pos_as_xyz
  1  'x, y, z'
loop_
 _atom_site_type_symbol
 _atom_site_label
 _atom_site_symmetry_multiplicity
 _atom_site_fract_x
 _atom_site_fract_y
 _atom_site_fract_z
 _atom_site_occupancy
  C  C0  1  0.74538645  0.75479533  0.49453973  1
  C  C1  1  0.74531954  0.24503271  0.49728798  1
  C  C2  1  0.25360829  0.75450632  0.49444187  1
  C  C3  1  0.25374091  0.24551956  0.49843661  1
  C  C4  1  0.50431528  0.50378844  0.24856928  1
  C  C5  1  0.50504770  0.99569878  0.24769413  1
  C  C6  1  0.75410573  0.75471517  0.00635035  1
  C  C7  1  0.75430122  0.24495230  0.00230587  1
  C  C8  1  0.99563014  0.50368285  0.24351982  1
  C  C9  1  0.99528483  0.99589427  0.24364965  1
  C  C10  1  0.24631715  0.75436986  0.00648018  1
  C  C11  1  0.24621156  0.24568472  0.00143072  1
  C  C12  1  0.50448044  0.49625909  0.75156339  1
  C  C13  1  0.50496729  0.00468046  0.75271202  1
  C  C14  1  0.99549368  0.49639171  0.75555813  1
  C  C15  1  0.99520467  0.00461355  0.75546027  1
  Hf  Hf16  1  0.75006449  0.75252023  0.75340049  1
  Hf  Hf17  1  0.24990792  0.24852574  0.75287190  1
  Hf  Hf18  1  0.24988780  0.75252021  0.75333206  1
  Hf  Hf19  1  0.50147426  0.50009208  0.49712810  1
  Hf  Hf20  1  0.99747977  0.99993551  0.49659951  1
  Hf  Hf21  1  0.99747979  0.50011220  0.49666794  1
  Hf  Hf22  1  0.25003918  0.24756654  0.24709586  1
  Hf  Hf23  1  0.50243346  0.49996082  0.00290414  1
  Ti  Ti24  1  0.75014304  0.24793667  0.75421514  1
  Ti  Ti25  1  0.50206333  0.99985696  0.49578486  1
  Ti  Ti26  1  0.75014494  0.24703203  0.24607122  1
  Ti  Ti27  1  0.74999708  0.75189058  0.24639823  1
  Ti  Ti28  1  0.24989852  0.75150587  0.24643641  1
  Ti  Ti29  1  0.50296797  0.99985506  0.00392878  1
  Ti  Ti30  1  0.99810942  0.00000292  0.00360177  1
  Ti  Ti31  1  0.99849413  0.50010148  0.00356359  1
