# generated using pymatgen
data_Hf3TiC4
_symmetry_space_group_name_H-M   'P 1'
_cell_length_a   5.60660511
_cell_length_b   7.24680246
_cell_length_c   9.70856761
_cell_angle_alpha   98.60197314
_cell_angle_beta   95.47867699
_cell_angle_gamma   97.42319244
_symmetry_Int_Tables_number   1
_chemical_formula_structural   Hf3TiC4
_chemical_formula_sum   'Hf12 Ti4 C16'
_cell_volume   384.09254787
_cell_formula_units_Z   4
loop_
 _symmetry_equiv_pos_site_id
 _symmetry_equiv_pos_as_xyz
  1  'x, y, z'
loop_
 _atom_site_type_symbol
 _atom_site_label
 _atom_site_symmetry_multiplicity
 _atom_site_fract_x
 _atom_site_fract_y
 _atom_site_fract_z
 _atom_site_occupancy
  C  C0  1  0.13484667  0.21702706  0.53503648  1
  C  C1  1  0.88173383  0.78415912  0.47213819  1
  C  C2  1  0.12627212  0.46900779  0.28196157  1
  C  C3  1  0.87500000  0.03125000  0.21875000  1
  C  C4  1  0.86826617  0.27834088  0.96536181  1
  C  C5  1  0.61438700  0.09660928  0.65908089  1
  C  C6  1  0.37377234  0.65805464  0.59955844  1
  C  C7  1  0.62403187  0.34452152  0.41157785  1
  C  C8  1  0.37457228  0.90724666  0.34868523  1
  C  C9  1  0.37542772  0.15525334  0.08881477  1
  C  C10  1  0.12596813  0.71797848  0.02592215  1
  C  C11  1  0.37622766  0.40444536  0.83794156  1
  C  C12  1  0.13561300  0.96589072  0.77841911  1
  C  C13  1  0.87500000  0.53125000  0.71875000  1
  C  C14  1  0.62372788  0.59349221  0.15553843  1
  C  C15  1  0.61515333  0.84547294  0.90246352  1
  Hf  Hf16  1  0.74863328  0.81294734  0.68832636  1
  Hf  Hf17  1  0.74984524  0.06346700  0.44101640  1
  Hf  Hf18  1  0.49999259  0.62596819  0.37882837  1
  Hf  Hf19  1  0.49834751  0.87518126  0.12260600  1
  Hf  Hf20  1  0.00136672  0.24955266  0.74917364  1
  Hf  Hf21  1  0.00283700  0.50121695  0.50379431  1
  Hf  Hf22  1  0.00122445  0.75061430  0.25095453  1
  Hf  Hf23  1  0.74877555  0.31188570  0.18654547  1
  Hf  Hf24  1  0.00015476  0.99903300  0.99648360  1
  Hf  Hf25  1  0.74716300  0.56128305  0.93370569  1
  Hf  Hf26  1  0.25165249  0.18731874  0.31489400  1
  Hf  Hf27  1  0.25000741  0.43653181  0.05867163  1
  Ti  Ti28  1  0.49817232  0.37324489  0.62777251  1
  Ti  Ti29  1  0.25182768  0.68925511  0.80972749  1
  Ti  Ti30  1  0.25226513  0.93920853  0.56651581  1
  Ti  Ti31  1  0.49773487  0.12329147  0.87098419  1
