# generated using pymatgen
data_HfTi3C4
_symmetry_space_group_name_H-M   'P 1'
_cell_length_a   5.41618402
_cell_length_b   6.99650498
_cell_length_c   9.38055991
_cell_angle_alpha   98.60307223
_cell_angle_beta   95.50434428
_cell_angle_gamma   97.42238255
_symmetry_Int_Tables_number   1
_chemical_formula_structural   HfTi3C4
_chemical_formula_sum   'Hf4 Ti12 C16'
_cell_volume   346.10961975
_cell_formula_units_Z   4
loop_
 _symmetry_equiv_pos_site_id
 _symmetry_equiv_pos_as_xyz
  1  'x, y, z'
loop_
 _atom_site_type_symbol
 _atom_site_label
 _atom_site_symmetry_multiplicity
 _atom_site_fract_x
 _atom_site_fract_y
 _atom_site_fract_z
 _atom_site_occupancy
  C  C0  1  0.12542665  0.21338420  0.53813674  1
  C  C1  1  0.88137268  0.79124099  0.47212981  1
  C  C2  1  0.11504575  0.47126566  0.27815180  1
  C  C3  1  0.86567513  0.02708488  0.21484060  1
  C  C4  1  0.86625146  0.27697647  0.96513662  1
  C  C5  1  0.62639002  0.09382201  0.65800690  1
  C  C6  1  0.38220318  0.66164727  0.60250468  1
  C  C7  1  0.62763787  0.33743282  0.40761563  1
  C  C8  1  0.37581731  0.90650657  0.34407463  1
  C  C9  1  0.37849136  0.14882616  0.08768208  1
  C  C10  1  0.12124468  0.72483228  0.02874875  1
  C  C11  1  0.37813531  0.40523064  0.83844167  1
  C  C12  1  0.12491492  0.96895342  0.78203307  1
  C  C13  1  0.87292698  0.53250037  0.72517056  1
  C  C14  1  0.63399998  0.59644352  0.15210589  1
  C  C15  1  0.62493757  0.84410398  0.90540179  1
  Hf  Hf16  1  0.50331841  0.62751563  0.37605121  1
  Hf  Hf17  1  0.00123994  0.50145641  0.50483628  1
  Hf  Hf18  1  0.24718176  0.18368964  0.31154378  1
  Hf  Hf19  1  0.24890941  0.43747441  0.05776350  1
  Ti  Ti20  1  0.75090066  0.81573482  0.69138657  1
  Ti  Ti21  1  0.50224299  0.37314212  0.62931519  1
  Ti  Ti22  1  0.74931182  0.06153132  0.43983569  1
  Ti  Ti23  1  0.50140280  0.87539584  0.12162114  1
  Ti  Ti24  1  0.25101675  0.69079775  0.81373508  1
  Ti  Ti25  1  0.99834235  0.24723614  0.75091855  1
  Ti  Ti26  1  0.25128374  0.93992487  0.56672784  1
  Ti  Ti27  1  0.99837193  0.75261598  0.24741112  1
  Ti  Ti28  1  0.74853053  0.30895854  0.18342973  1
  Ti  Ti29  1  0.99718900  0.99754623  0.99675277  1
  Ti  Ti30  1  0.74950469  0.56392675  0.93548582  1
  Ti  Ti31  1  0.50078237  0.12280233  0.87300455  1
