# generated using pymatgen
data_HfTi7C8
_symmetry_space_group_name_H-M   'P 1'
_cell_length_a   6.92279791
_cell_length_b   6.92938703
_cell_length_c   8.19161005
_cell_angle_alpha   75.28032129
_cell_angle_beta   64.99264026
_cell_angle_gamma   72.52544575
_symmetry_Int_Tables_number   1
_chemical_formula_structural   HfTi7C8
_chemical_formula_sum   'Hf2 Ti14 C16'
_cell_volume   335.98968852
_cell_formula_units_Z   2
loop_
 _symmetry_equiv_pos_site_id
 _symmetry_equiv_pos_as_xyz
  1  'x, y, z'
loop_
 _atom_site_type_symbol
 _atom_site_label
 _atom_site_symmetry_multiplicity
 _atom_site_fract_x
 _atom_site_fract_y
 _atom_site_fract_z
 _atom_site_occupancy
  C  C0  1  0.83998842  0.40969984  0.47798402  1
  C  C1  1  0.15653711  0.59391535  0.53161921  1
  C  C2  1  0.28954501  0.46669315  0.15443621  1
  C  C3  1  0.46783474  0.78142775  0.59485070  1
  C  C4  1  0.77837200  0.96568151  0.66367921  1
  C  C5  1  0.09418557  0.15619412  0.71869889  1
  C  C6  1  0.58574561  0.65820436  0.21965780  1
  C  C7  1  0.90625000  0.84375000  0.28125000  1
  C  C8  1  0.22675439  0.02929564  0.34284220  1
  C  C9  1  0.40625000  0.34375000  0.78125000  1
  C  C10  1  0.71831443  0.53130588  0.84380111  1
  C  C11  1  0.03412800  0.72181849  0.89882079  1
  C  C12  1  0.34466526  0.90607225  0.96764930  1
  C  C13  1  0.52295499  0.22080685  0.40806379  1
  C  C14  1  0.65596289  0.09358465  0.03088079  1
  C  C15  1  0.97251158  0.27780016  0.08451598  1
  Hf  Hf16  1  0.93817697  0.56289980  0.18562737  1
  Hf  Hf17  1  0.87432303  0.12460020  0.37687263  1
  Ti  Ti18  1  0.06377230  0.43707552  0.80954341  1
  Ti  Ti19  1  0.37730109  0.62543029  0.87310845  1
  Ti  Ti20  1  0.49537674  0.50155167  0.50284920  1
  Ti  Ti21  1  0.68582551  0.81342267  0.93693214  1
  Ti  Ti22  1  0.00137787  0.00047166  0.99643512  1
  Ti  Ti23  1  0.31712326  0.18594833  0.05965080  1
  Ti  Ti24  1  0.81112213  0.68702834  0.56606488  1
  Ti  Ti25  1  0.12667449  0.87407733  0.62556786  1
  Ti  Ti26  1  0.43519891  0.06206971  0.68939155  1
  Ti  Ti27  1  0.62334338  0.37510487  0.12306823  1
  Ti  Ti28  1  0.25224149  0.74958129  0.24946117  1
  Ti  Ti29  1  0.56025851  0.93791871  0.31303883  1
  Ti  Ti30  1  0.74872770  0.25042448  0.75295659  1
  Ti  Ti31  1  0.18915662  0.31239513  0.43943177  1
