# generated using pymatgen
data_Zr7TiC8
_symmetry_space_group_name_H-M   'P 1'
_cell_length_a   8.73809151
_cell_length_b   8.73809150
_cell_length_c   5.72217150
_cell_angle_alpha   102.63329397
_cell_angle_beta   102.63329396
_cell_angle_gamma   98.17464875
_symmetry_Int_Tables_number   1
_chemical_formula_structural   Zr7TiC8
_chemical_formula_sum   'Zr14 Ti2 C16'
_cell_volume   407.64391777
_cell_formula_units_Z   2
loop_
 _symmetry_equiv_pos_site_id
 _symmetry_equiv_pos_as_xyz
  1  'x, y, z'
loop_
 _atom_site_type_symbol
 _atom_site_label
 _atom_site_symmetry_multiplicity
 _atom_site_fract_x
 _atom_site_fract_y
 _atom_site_fract_z
 _atom_site_occupancy
  C  C0  1  0.49419714  0.75580286  0.25000000  1
  C  C1  1  0.25580286  0.99419714  0.25000000  1
  C  C2  1  0.37500000  0.37500000  0.25000000  1
  C  C3  1  0.12882024  0.62882024  0.24502014  1
  C  C4  1  0.87500000  0.87500000  0.25000000  1
  C  C5  1  0.00027765  0.24972235  0.25000000  1
  C  C6  1  0.74972235  0.50027765  0.25000000  1
  C  C7  1  0.62117976  0.12117976  0.25497986  1
  C  C8  1  0.37500000  0.87500000  0.75000000  1
  C  C9  1  0.49936500  0.24431374  0.74491010  1
  C  C10  1  0.25063500  0.50568626  0.75508990  1
  C  C11  1  0.00568626  0.75063500  0.75508990  1
  C  C12  1  0.74431374  0.99936500  0.74491010  1
  C  C13  1  0.12573379  0.12426621  0.75000000  1
  C  C14  1  0.87500000  0.37500000  0.75000000  1
  C  C15  1  0.62426621  0.62573379  0.75000000  1
  Ti  Ti16  1  0.25154435  0.75154435  0.00324784  1
  Ti  Ti17  1  0.49845565  0.99845565  0.49675216  1
  Zr  Zr18  1  0.37534173  0.12176905  0.99955424  1
  Zr  Zr19  1  0.12595264  0.37652613  0.00008534  1
  Zr  Zr20  1  0.00149072  0.99861735  0.00022733  1
  Zr  Zr21  1  0.74824439  0.24824439  0.99828701  1
  Zr  Zr22  1  0.87652613  0.62595264  0.00008534  1
  Zr  Zr23  1  0.62176905  0.87534173  0.99955424  1
  Zr  Zr24  1  0.49861735  0.50149072  0.00022733  1
  Zr  Zr25  1  0.25138265  0.24850928  0.49977267  1
  Zr  Zr26  1  0.37465827  0.62823095  0.50044576  1
  Zr  Zr27  1  0.12823095  0.87465827  0.50044576  1
  Zr  Zr28  1  0.87347387  0.12404736  0.49991466  1
  Zr  Zr29  1  0.62404736  0.37347387  0.49991466  1
  Zr  Zr30  1  0.00175561  0.50175561  0.50171299  1
  Zr  Zr31  1  0.74850928  0.75138265  0.49977267  1
