# generated using pymatgen
data_Hf5Ti3C8
_symmetry_space_group_name_H-M   'P 1'
_cell_length_a   5.56251735
_cell_length_b   6.43245894
_cell_length_c   11.11982820
_cell_angle_alpha   89.98210133
_cell_angle_beta   99.64605790
_cell_angle_gamma   106.76793921
_symmetry_Int_Tables_number   1
_chemical_formula_structural   Hf5Ti3C8
_chemical_formula_sum   'Hf10 Ti6 C16'
_cell_volume   375.08506347
_cell_formula_units_Z   2
loop_
 _symmetry_equiv_pos_site_id
 _symmetry_equiv_pos_as_xyz
  1  'x, y, z'
loop_
 _atom_site_type_symbol
 _atom_site_label
 _atom_site_symmetry_multiplicity
 _atom_site_fract_x
 _atom_site_fract_y
 _atom_site_fract_z
 _atom_site_occupancy
  C  C0  1  0.75084639  0.93312113  0.31941771  1
  C  C1  1  0.74171745  0.43999658  0.31295661  1
  C  C2  1  0.25381396  0.31343295  0.44313961  1
  C  C3  1  0.75081490  0.18234577  0.56758264  1
  C  C4  1  0.24893499  0.06764169  0.68068872  1
  C  C5  1  0.75029984  0.94205210  0.80529009  1
  C  C6  1  0.25468582  0.81318080  0.44305799  1
  C  C7  1  0.74058595  0.69064958  0.55945713  1
  C  C8  1  0.25378918  0.55827717  0.68456886  1
  C  C9  1  0.75046618  0.43350964  0.80545119  1
  C  C10  1  0.24989256  0.31240107  0.93582688  1
  C  C11  1  0.74580114  0.19069270  0.06364010  1
  C  C12  1  0.25422678  0.06797526  0.18846035  1
  C  C13  1  0.25000121  0.81257832  0.93549675  1
  C  C14  1  0.74659026  0.68207346  0.06395896  1
  C  C15  1  0.25803071  0.55980676  0.19103745  1
  Hf  Hf16  1  0.00148275  0.74945550  0.25338069  1
  Hf  Hf17  1  0.00183614  0.25126406  0.25319771  1
  Hf  Hf18  1  0.50106586  0.12502806  0.37964926  1
  Hf  Hf19  1  0.99886520  0.75090398  0.74477695  1
  Hf  Hf20  1  0.99900548  0.49960890  0.50190762  1
  Hf  Hf21  1  0.49835070  0.12648600  0.87042254  1
  Hf  Hf22  1  0.00001779  0.00198996  0.99867678  1
  Hf  Hf23  1  0.50112461  0.87431612  0.12723855  1
  Hf  Hf24  1  0.49942749  0.62282582  0.87144415  1
  Hf  Hf25  1  0.00046928  0.49825842  0.99930866  1
  Ti  Ti26  1  0.00063938  0.00077510  0.50257415  1
  Ti  Ti27  1  0.50149180  0.87582252  0.62262248  1
  Ti  Ti28  1  0.50233925  0.62609824  0.37882517  1
  Ti  Ti29  1  0.49611353  0.37339098  0.62362891  1
  Ti  Ti30  1  0.99678164  0.24809727  0.74566706  1
  Ti  Ti31  1  0.50049181  0.37594410  0.12664825  1
