# generated using pymatgen
data_AlCrFeCoNi
_symmetry_space_group_name_H-M   'P 1'
_cell_length_a   4.44196086
_cell_length_b   6.64193199
_cell_length_c   8.68818594
_cell_angle_alpha   72.18907545
_cell_angle_beta   81.51375879
_cell_angle_gamma   70.89850240
_symmetry_Int_Tables_number   1
_chemical_formula_structural   AlCrFeCoNi
_chemical_formula_sum   'Al4 Cr4 Fe4 Co4 Ni4'
_cell_volume   230.28543491
_cell_formula_units_Z   4
loop_
 _symmetry_equiv_pos_site_id
 _symmetry_equiv_pos_as_xyz
  1  'x, y, z'
loop_
 _atom_site_type_symbol
 _atom_site_label
 _atom_site_symmetry_multiplicity
 _atom_site_fract_x
 _atom_site_fract_y
 _atom_site_fract_z
 _atom_site_occupancy
  Al  Al0  1  0.70927761  0.08425929  0.76000068  1
  Al  Al1  1  0.79007818  0.42084355  0.48036822  1
  Al  Al2  1  0.11083632  0.31354266  0.75367250  1
  Al  Al3  1  0.67902122  0.10290287  0.26410349  1
  Co  Co4  1  0.18887868  0.61908544  0.48793234  1
  Co  Co5  1  0.48613644  0.50289532  0.24209492  1
  Co  Co6  1  0.09284098  0.29839941  0.24498021  1
  Co  Co7  1  0.40869510  0.19768813  0.00714870  1
  Cr  Cr8  1  0.30746897  0.87801664  0.75786308  1
  Cr  Cr9  1  0.29995235  0.88922691  0.24089442  1
  Cr  Cr10  1  0.79697508  0.39488255  0.00761745  1
  Cr  Cr11  1  0.19072279  0.59396383  0.00135778  1
  Fe  Fe12  1  0.91065200  0.70759874  0.23442520  1
  Fe  Fe13  1  0.58880067  0.79031308  0.00439954  1
  Fe  Fe14  1  0.02499675  0.99356277  0.50393039  1
  Fe  Fe15  1  0.00146385  0.00667737  0.00054988  1
  Ni  Ni16  1  0.89987780  0.69849382  0.74962570  1
  Ni  Ni17  1  0.51119698  0.49609847  0.74389526  1
  Ni  Ni18  1  0.60396845  0.80736650  0.50124731  1
  Ni  Ni19  1  0.39815979  0.20418265  0.51389293  1
