# generated using pymatgen
data_MnAlFeCoNi
_symmetry_space_group_name_H-M   'P 1'
_cell_length_a   4.98548775
_cell_length_b   6.47336928
_cell_length_c   8.56476767
_cell_angle_alpha   66.48070507
_cell_angle_beta   72.59830170
_cell_angle_gamma   73.90808785
_symmetry_Int_Tables_number   1
_chemical_formula_structural   MnAlFeCoNi
_chemical_formula_sum   'Mn4 Al4 Fe4 Co4 Ni4'
_cell_volume   237.88002511
_cell_formula_units_Z   4
loop_
 _symmetry_equiv_pos_site_id
 _symmetry_equiv_pos_as_xyz
  1  'x, y, z'
loop_
 _atom_site_type_symbol
 _atom_site_label
 _atom_site_symmetry_multiplicity
 _atom_site_fract_x
 _atom_site_fract_y
 _atom_site_fract_z
 _atom_site_occupancy
  Al  Al0  1  0.99537906  0.99600389  0.99270684  1
  Al  Al1  1  0.98667568  0.19514694  0.20400076  1
  Al  Al2  1  0.01769466  0.40210806  0.40169164  1
  Al  Al3  1  0.00238918  0.60615826  0.61359175  1
  Co  Co4  1  0.74499002  0.80001816  0.30062916  1
  Co  Co5  1  0.51896200  0.40535186  0.39321205  1
  Co  Co6  1  0.51629268  0.59421211  0.59850962  1
  Co  Co7  1  0.50080140  0.79593242  0.79492760  1
  Fe  Fe8  1  0.74868731  0.60832338  0.09841769  1
  Fe  Fe9  1  0.99511321  0.80540340  0.80074162  1
  Fe  Fe10  1  0.74656775  0.20315881  0.70454378  1
  Fe  Fe11  1  0.73454685  0.40546204  0.90731239  1
  Mn  Mn12  1  0.25639142  0.79063896  0.30060514  1
  Mn  Mn13  1  0.49661063  0.99769654  0.99262371  1
  Mn  Mn14  1  0.49369197  0.19383985  0.20238849  1
  Mn  Mn15  1  0.24598027  0.40459053  0.89530405  1
  Ni  Ni16  1  0.25041247  0.59800629  0.09886133  1
  Ni  Ni17  1  0.74407416  0.99889079  0.50463473  1
  Ni  Ni18  1  0.25154832  0.99507192  0.50003226  1
  Ni  Ni19  1  0.25319100  0.20398580  0.69526535  1
