# generated using pymatgen
data_HfTiN2
_symmetry_space_group_name_H-M   'P 1'
_cell_length_a   8.82636552
_cell_length_b   4.41322342
_cell_length_c   4.41322342
_cell_angle_alpha   90.00000000
_cell_angle_beta   90.00000000
_cell_angle_gamma   90.00000000
_symmetry_Int_Tables_number   1
_chemical_formula_structural   HfTiN2
_chemical_formula_sum   'Hf4 Ti4 N8'
_cell_volume   171.90706953
_cell_formula_units_Z   4
loop_
 _symmetry_equiv_pos_site_id
 _symmetry_equiv_pos_as_xyz
  1  'x, y, z'
loop_
 _atom_site_type_symbol
 _atom_site_label
 _atom_site_symmetry_multiplicity
 _atom_site_fract_x
 _atom_site_fract_y
 _atom_site_fract_z
 _atom_site_occupancy
  Ti  Ti0  1  0.00000000  0.00000000  0.00000000  1
  Ti  Ti1  1  0.25000000  0.00000000  0.50000000  1
  Ti  Ti2  1  0.50000000  0.50000000  0.50000000  1
  Ti  Ti3  1  0.75000000  0.50000000  0.00000000  1
  Hf  Hf4  1  0.00000000  0.50000000  0.50000000  1
  Hf  Hf5  1  0.25000000  0.50000000  0.00000000  1
  Hf  Hf6  1  0.50000000  0.00000000  0.00000000  1
  Hf  Hf7  1  0.75000000  0.00000000  0.50000000  1
  N  N8  1  0.24874465  0.00000000  0.00000000  1
  N  N9  1  0.25125535  0.50000000  0.50000000  1
  N  N10  1  0.00125535  0.00000000  0.50000000  1
  N  N11  1  0.99874465  0.50000000  0.00000000  1
  N  N12  1  0.75125535  0.00000000  0.00000000  1
  N  N13  1  0.74874465  0.50000000  0.50000000  1
  N  N14  1  0.49874465  0.00000000  0.50000000  1
  N  N15  1  0.50125535  0.50000000  0.00000000  1
