# generated using pymatgen
data_HfTi3N4
_symmetry_space_group_name_H-M   'P 1'
_cell_length_a   8.68431318
_cell_length_b   4.33798623
_cell_length_c   4.33450889
_cell_angle_alpha   90.00000000
_cell_angle_beta   90.00000000
_cell_angle_gamma   90.00000000
_symmetry_Int_Tables_number   1
_chemical_formula_structural   HfTi3N4
_chemical_formula_sum   'Hf2 Ti6 N8'
_cell_volume   163.29148704
_cell_formula_units_Z   2
loop_
 _symmetry_equiv_pos_site_id
 _symmetry_equiv_pos_as_xyz
  1  'x, y, z'
loop_
 _atom_site_type_symbol
 _atom_site_label
 _atom_site_symmetry_multiplicity
 _atom_site_fract_x
 _atom_site_fract_y
 _atom_site_fract_z
 _atom_site_occupancy
  Ti  Ti0  1  0.24490891  0.00000000  0.00000000  1
  Ti  Ti1  1  0.24135081  0.50000000  0.50000000  1
  Ti  Ti2  1  0.00864919  0.00000000  0.50000000  1
  Ti  Ti3  1  0.00509109  0.50000000  0.00000000  1
  Ti  Ti4  1  0.76012305  0.50000000  0.50000000  1
  Ti  Ti5  1  0.48987695  0.00000000  0.50000000  1
  N  N6  1  0.00453550  0.00000000  0.00000000  1
  N  N7  1  0.00171779  0.50000000  0.50000000  1
  N  N8  1  0.24828221  0.00000000  0.50000000  1
  N  N9  1  0.24546450  0.50000000  0.00000000  1
  N  N10  1  0.49708805  0.00000000  0.00000000  1
  N  N11  1  0.49740131  0.50000000  0.50000000  1
  N  N12  1  0.75259869  0.00000000  0.50000000  1
  N  N13  1  0.75291195  0.50000000  0.00000000  1
  Hf  Hf14  1  0.75539818  0.00000000  0.00000000  1
  Hf  Hf15  1  0.49460182  0.50000000  0.00000000  1
