# generated using pymatgen
data_HfTi3N4
_symmetry_space_group_name_H-M   'P 1'
_cell_length_a   8.68798471
_cell_length_b   4.33467034
_cell_length_c   4.33907502
_cell_angle_alpha   90.00000000
_cell_angle_beta   90.00000000
_cell_angle_gamma   90.00000000
_symmetry_Int_Tables_number   1
_chemical_formula_structural   HfTi3N4
_chemical_formula_sum   'Hf2 Ti6 N8'
_cell_volume   163.40761109
_cell_formula_units_Z   2
loop_
 _symmetry_equiv_pos_site_id
 _symmetry_equiv_pos_as_xyz
  1  'x, y, z'
loop_
 _atom_site_type_symbol
 _atom_site_label
 _atom_site_symmetry_multiplicity
 _atom_site_fract_x
 _atom_site_fract_y
 _atom_site_fract_z
 _atom_site_occupancy
  Ti  Ti0  1  0.00999988  0.00000000  0.00000000  1
  Ti  Ti1  1  0.25857149  0.00000000  0.50000000  1
  Ti  Ti2  1  0.25525211  0.50000000  0.00000000  1
  Ti  Ti3  1  0.49142851  0.00000000  0.00000000  1
  Ti  Ti4  1  0.49474789  0.50000000  0.50000000  1
  Ti  Ti5  1  0.74000012  0.00000000  0.50000000  1
  Hf  Hf6  1  0.00549397  0.50000000  0.50000000  1
  Hf  Hf7  1  0.74450603  0.50000000  0.00000000  1
  N  N8  1  0.25159473  0.00000000  0.00000000  1
  N  N9  1  0.25454691  0.50000000  0.50000000  1
  N  N10  1  0.00253031  0.00000000  0.50000000  1
  N  N11  1  0.00285341  0.50000000  0.00000000  1
  N  N12  1  0.74746969  0.00000000  0.00000000  1
  N  N13  1  0.74714659  0.50000000  0.50000000  1
  N  N14  1  0.49840527  0.00000000  0.50000000  1
  N  N15  1  0.49545309  0.50000000  0.00000000  1
