# generated using pymatgen
data_HfTi7N8
_symmetry_space_group_name_H-M   'P 1'
_cell_length_a   8.60181481
_cell_length_b   8.60657359
_cell_length_c   4.28725627
_cell_angle_alpha   90.00000000
_cell_angle_beta   90.00000000
_cell_angle_gamma   90.00000000
_symmetry_Int_Tables_number   1
_chemical_formula_structural   HfTi7N8
_chemical_formula_sum   'Hf2 Ti14 N16'
_cell_volume   317.39480857
_cell_formula_units_Z   2
loop_
 _symmetry_equiv_pos_site_id
 _symmetry_equiv_pos_as_xyz
  1  'x, y, z'
loop_
 _atom_site_type_symbol
 _atom_site_label
 _atom_site_symmetry_multiplicity
 _atom_site_fract_x
 _atom_site_fract_y
 _atom_site_fract_z
 _atom_site_occupancy
  Ti  Ti0  1  0.25371275  0.99599720  0.00000000  1
  Ti  Ti1  1  0.26033971  0.24635430  0.50000000  1
  Ti  Ti2  1  -0.00000000  0.99391413  0.50000000  1
  Ti  Ti3  1  0.26033971  0.50364570  0.00000000  1
  Ti  Ti4  1  0.25371275  0.75400280  0.50000000  1
  Ti  Ti5  1  -0.00000000  0.75608587  -0.00000000  1
  Ti  Ti6  1  0.74628725  0.99599720  0.00000000  1
  Ti  Ti7  1  0.73966029  0.24635430  0.50000000  1
  Ti  Ti8  1  0.50000000  -0.00036584  0.50000000  1
  Ti  Ti9  1  0.50000000  0.24952508  -0.00000000  1
  Ti  Ti10  1  0.73966029  0.50364570  -0.00000000  1
  Ti  Ti11  1  0.74628725  0.75400280  0.50000000  1
  Ti  Ti12  1  0.50000000  0.50047492  0.50000000  1
  Ti  Ti13  1  0.50000000  0.75036584  -0.00000000  1
  Hf  Hf14  1  -0.00000000  0.24461715  -0.00000000  1
  Hf  Hf15  1  -0.00000000  0.50538285  0.50000000  1
  N  N16  1  -0.00000000  0.99560422  -0.00000000  1
  N  N17  1  -0.00000000  0.24729969  0.50000000  1
  N  N18  1  0.25127945  0.99945670  0.50000000  1
  N  N19  1  0.25454548  0.24912886  -0.00000000  1
  N  N20  1  -0.00000000  0.50270031  -0.00000000  1
  N  N21  1  -0.00000000  0.75439578  0.50000000  1
  N  N22  1  0.25454548  0.50087114  0.50000000  1
  N  N23  1  0.25127945  0.75054330  -0.00000000  1
  N  N24  1  0.50000000  0.99952912  -0.00000000  1
  N  N25  1  0.50000000  0.24958243  0.50000000  1
  N  N26  1  0.74872055  0.99945670  0.50000000  1
  N  N27  1  0.74545452  0.24912886  -0.00000000  1
  N  N28  1  0.50000000  0.50041757  -0.00000000  1
  N  N29  1  0.50000000  0.75047088  0.50000000  1
  N  N30  1  0.74545452  0.50087114  0.50000000  1
  N  N31  1  0.74872055  0.75054330  0.00000000  1
