# generated using pymatgen
data_Hf3Ti13N16
_symmetry_space_group_name_H-M   'P 1'
_cell_length_a   8.64413111
_cell_length_b   8.65312191
_cell_length_c   4.30787351
_cell_angle_alpha   90.00000000
_cell_angle_beta   90.00000000
_cell_angle_gamma   90.00000000
_symmetry_Int_Tables_number   1
_chemical_formula_structural   Hf3Ti13N16
_chemical_formula_sum   'Hf3 Ti13 N16'
_cell_volume   322.22342577
_cell_formula_units_Z   1
loop_
 _symmetry_equiv_pos_site_id
 _symmetry_equiv_pos_as_xyz
  1  'x, y, z'
loop_
 _atom_site_type_symbol
 _atom_site_label
 _atom_site_symmetry_multiplicity
 _atom_site_fract_x
 _atom_site_fract_y
 _atom_site_fract_z
 _atom_site_occupancy
  Hf  Hf0  1  0.25287720  0.00219813  0.00000000  1
  Hf  Hf1  1  0.25287720  0.49780187  0.00000000  1
  Hf  Hf2  1  0.99428116  0.75000000  0.00000000  1
  Ti  Ti3  1  0.25041028  0.25000000  0.50000000  1
  Ti  Ti4  1  0.99193589  0.00898339  0.50000000  1
  Ti  Ti5  1  0.99311076  0.25000000  0.00000000  1
  Ti  Ti6  1  0.25982211  0.75000000  0.50000000  1
  Ti  Ti7  1  0.99193589  0.49101661  0.50000000  1
  Ti  Ti8  1  0.74723223  0.00389619  0.00000000  1
  Ti  Ti9  1  0.74961893  0.25000000  0.50000000  1
  Ti  Ti10  1  0.50767917  0.00028116  0.50000000  1
  Ti  Ti11  1  0.50710913  0.25000000  0.00000000  1
  Ti  Ti12  1  0.74723223  0.49610381  0.00000000  1
  Ti  Ti13  1  0.74153248  0.75000000  0.50000000  1
  Ti  Ti14  1  0.50767917  0.49971884  0.50000000  1
  Ti  Ti15  1  0.50489699  0.75000000  0.00000000  1
  N  N16  1  0.99631412  0.00354371  0.00000000  1
  N  N17  1  0.99802240  0.25000000  0.50000000  1
  N  N18  1  0.25103569  0.00056888  0.50000000  1
  N  N19  1  0.25039586  0.25000000  0.00000000  1
  N  N20  1  0.99631412  0.49645629  0.00000000  1
  N  N21  1  0.99764787  0.75000000  0.50000000  1
  N  N22  1  0.25103569  0.49943112  0.50000000  1
  N  N23  1  0.25248035  0.75000000  0.00000000  1
  N  N24  1  0.50451349  0.00048381  0.00000000  1
  N  N25  1  0.50182069  0.25000000  0.50000000  1
  N  N26  1  0.74934795  0.00092262  0.50000000  1
  N  N27  1  0.74977490  0.25000000  0.00000000  1
  N  N28  1  0.50451349  0.49951619  0.00000000  1
  N  N29  1  0.50167507  0.75000000  0.50000000  1
  N  N30  1  0.74934795  0.49907738  0.50000000  1
  N  N31  1  0.74552959  0.75000000  0.00000000  1
