# generated using pymatgen
data_Hf5Ti11N16
_symmetry_space_group_name_H-M   'P 1'
_cell_length_a   8.71024392
_cell_length_b   8.73616721
_cell_length_c   4.34856843
_cell_angle_alpha   90.00000000
_cell_angle_beta   90.00000000
_cell_angle_gamma   90.00000000
_symmetry_Int_Tables_number   1
_chemical_formula_structural   Hf5Ti11N16
_chemical_formula_sum   'Hf5 Ti11 N16'
_cell_volume   330.90060677
_cell_formula_units_Z   1
loop_
 _symmetry_equiv_pos_site_id
 _symmetry_equiv_pos_as_xyz
  1  'x, y, z'
loop_
 _atom_site_type_symbol
 _atom_site_label
 _atom_site_symmetry_multiplicity
 _atom_site_fract_x
 _atom_site_fract_y
 _atom_site_fract_z
 _atom_site_occupancy
  Ti  Ti0  1  0.25049976  0.99080180  0.00000000  1
  Ti  Ti1  1  0.99233202  0.25000000  0.00000000  1
  Ti  Ti2  1  0.25049976  0.50919820  0.00000000  1
  Ti  Ti3  1  0.24974462  0.75000000  0.50000000  1
  Ti  Ti4  1  -0.00004769  0.75000000  0.00000000  1
  Ti  Ti5  1  0.74948431  0.00047632  0.00000000  1
  Ti  Ti6  1  0.75086518  0.25000000  0.50000000  1
  Ti  Ti7  1  0.50332980  0.99621874  0.50000000  1
  Ti  Ti8  1  0.74948431  0.49952368  0.00000000  1
  Ti  Ti9  1  0.75032853  0.75000000  0.50000000  1
  Ti  Ti10  1  0.50332980  0.50378126  0.50000000  1
  Hf  Hf11  1  0.24939645  0.25000000  0.50000000  1
  Hf  Hf12  1  0.99693014  0.99770405  0.50000000  1
  Hf  Hf13  1  0.99693014  0.50229595  0.50000000  1
  Hf  Hf14  1  0.50523526  0.25000000  0.00000000  1
  Hf  Hf15  1  0.50148990  0.75000000  0.00000000  1
  N  N16  1  0.99932175  0.99924346  0.00000000  1
  N  N17  1  0.99688410  0.25000000  0.50000000  1
  N  N18  1  0.25210073  0.99696474  0.50000000  1
  N  N19  1  0.24826377  0.25000000  0.00000000  1
  N  N20  1  0.99932175  0.50075654  0.00000000  1
  N  N21  1  0.99990597  0.75000000  0.50000000  1
  N  N22  1  0.25210073  0.50303526  0.50000000  1
  N  N23  1  0.24788474  0.75000000  0.00000000  1
  N  N24  1  0.50074094  0.99951091  0.00000000  1
  N  N25  1  0.50243963  0.25000000  0.50000000  1
  N  N26  1  0.74683866  0.99955837  0.50000000  1
  N  N27  1  0.75286693  0.25000000  0.00000000  1
  N  N28  1  0.50074094  0.50048909  0.00000000  1
  N  N29  1  0.50064015  0.75000000  0.50000000  1
  N  N30  1  0.74683866  0.50044163  0.50000000  1
  N  N31  1  0.75327823  0.75000000  0.00000000  1
