# generated using pymatgen
data_Hf7Ti9N16
_symmetry_space_group_name_H-M   'P 1'
_cell_length_a   8.79952714
_cell_length_b   8.79952714
_cell_length_c   4.38590449
_cell_angle_alpha   90.00000000
_cell_angle_beta   90.00000000
_cell_angle_gamma   90.13736132
_symmetry_Int_Tables_number   1
_chemical_formula_structural   Hf7Ti9N16
_chemical_formula_sum   'Hf7 Ti9 N16'
_cell_volume   339.60696768
_cell_formula_units_Z   1
loop_
 _symmetry_equiv_pos_site_id
 _symmetry_equiv_pos_as_xyz
  1  'x, y, z'
loop_
 _atom_site_type_symbol
 _atom_site_label
 _atom_site_symmetry_multiplicity
 _atom_site_fract_x
 _atom_site_fract_y
 _atom_site_fract_z
 _atom_site_occupancy
  Ti  Ti0  1  0.24715671  0.98874456  0.00000000  1
  Ti  Ti1  1  0.99419553  0.24574509  0.00000000  1
  Ti  Ti2  1  0.25412124  0.51095535  0.00000000  1
  Ti  Ti3  1  0.25260848  0.74739152  0.50000000  1
  Ti  Ti4  1  0.01125544  0.75284329  0.00000000  1
  Ti  Ti5  1  0.75425491  0.00580447  0.00000000  1
  Ti  Ti6  1  0.75465771  0.24534229  0.50000000  1
  Ti  Ti7  1  0.49258984  0.50741016  0.50000000  1
  Ti  Ti8  1  0.48904465  0.74587876  0.00000000  1
  Hf  Hf9  1  0.24731908  0.25197028  0.50000000  1
  Hf  Hf10  1  0.00056133  0.99943867  0.50000000  1
  Hf  Hf11  1  0.00515979  0.50119612  0.50000000  1
  Hf  Hf12  1  0.49880388  0.99484021  0.50000000  1
  Hf  Hf13  1  0.50205849  0.25173664  0.00000000  1
  Hf  Hf14  1  0.74826336  0.49794151  0.00000000  1
  Hf  Hf15  1  0.74802972  0.75268092  0.50000000  1
  N  N16  1  0.00114446  0.99885554  0.00000000  1
  N  N17  1  0.99838181  0.24998498  0.50000000  1
  N  N18  1  0.24979097  0.99713963  0.50000000  1
  N  N19  1  0.24850731  0.25062630  0.00000000  1
  N  N20  1  0.00265270  0.50077495  0.00000000  1
  N  N21  1  0.00286037  0.75020903  0.50000000  1
  N  N22  1  0.25256506  0.50325880  0.50000000  1
  N  N23  1  0.25026897  0.74973103  0.00000000  1
  N  N24  1  0.49922505  0.99734730  0.00000000  1
  N  N25  1  0.50088590  0.25126328  0.50000000  1
  N  N26  1  0.75001502  0.00161819  0.50000000  1
  N  N27  1  0.75173788  0.24826212  0.00000000  1
  N  N28  1  0.49703272  0.50296728  0.00000000  1
  N  N29  1  0.49674120  0.74743494  0.50000000  1
  N  N30  1  0.74873672  0.49911410  0.50000000  1
  N  N31  1  0.74937370  0.75149269  0.00000000  1
