# generated using pymatgen
data_Hf11Ti5N16
_symmetry_space_group_name_H-M   'P 1'
_cell_length_a   8.93325087
_cell_length_b   8.92853242
_cell_length_c   4.45034510
_cell_angle_alpha   90.00000000
_cell_angle_beta   90.00000000
_cell_angle_gamma   90.00000000
_symmetry_Int_Tables_number   1
_chemical_formula_structural   Hf11Ti5N16
_chemical_formula_sum   'Hf11 Ti5 N16'
_cell_volume   354.96317450
_cell_formula_units_Z   1
loop_
 _symmetry_equiv_pos_site_id
 _symmetry_equiv_pos_as_xyz
  1  'x, y, z'
loop_
 _atom_site_type_symbol
 _atom_site_label
 _atom_site_symmetry_multiplicity
 _atom_site_fract_x
 _atom_site_fract_y
 _atom_site_fract_z
 _atom_site_occupancy
  Hf  Hf0  1  0.25447484  0.00602221  -0.00000000  1
  Hf  Hf1  1  0.00000000  0.00435165  0.50000000  1
  Hf  Hf2  1  0.00000000  0.25388271  -0.00000000  1
  Hf  Hf3  1  0.25185697  0.74626976  0.50000000  1
  Hf  Hf4  1  0.00000000  0.49603446  0.50000000  1
  Hf  Hf5  1  0.00000000  0.74646666  -0.00000000  1
  Hf  Hf6  1  0.74552516  0.00602221  -0.00000000  1
  Hf  Hf7  1  0.50000000  0.25024109  -0.00000000  1
  Hf  Hf8  1  0.74814303  0.74626976  0.50000000  1
  Hf  Hf9  1  0.50000000  0.49475023  0.50000000  1
  Hf  Hf10  1  0.50000000  0.74959732  -0.00000000  1
  Ti  Ti11  1  0.25251239  0.25502578  0.50000000  1
  Ti  Ti12  1  0.25062068  0.49250440  -0.00000000  1
  Ti  Ti13  1  0.74748761  0.25502578  0.50000000  1
  Ti  Ti14  1  0.50000000  0.00503932  0.50000000  1
  Ti  Ti15  1  0.74937932  0.49250440  -0.00000000  1
  N  N16  1  0.00000000  0.00132098  -0.00000000  1
  N  N17  1  0.00000000  0.25075274  0.50000000  1
  N  N18  1  0.25173740  0.00173915  0.50000000  1
  N  N19  1  0.25049679  0.25195565  -0.00000000  1
  N  N20  1  0.00000000  0.49925581  -0.00000000  1
  N  N21  1  0.00000000  0.74917767  0.50000000  1
  N  N22  1  0.25035604  0.49753415  0.50000000  1
  N  N23  1  0.25043489  0.74959266  0.00000000  1
  N  N24  1  0.50000000  0.00107623  -0.00000000  1
  N  N25  1  0.50000000  0.24849391  0.50000000  1
  N  N26  1  0.74826260  0.00173915  0.50000000  1
  N  N27  1  0.74950321  0.25195565  -0.00000000  1
  N  N28  1  0.50000000  0.49893352  -0.00000000  1
  N  N29  1  0.50000000  0.74933815  0.50000000  1
  N  N30  1  0.74964396  0.49753415  0.50000000  1
  N  N31  1  0.74956511  0.74959266  -0.00000000  1
