# generated using pymatgen
data_Hf5Ti11N16
_symmetry_space_group_name_H-M   'P 1'
_cell_length_a   8.72949892
_cell_length_b   8.72956564
_cell_length_c   4.35057286
_cell_angle_alpha   90.00000000
_cell_angle_beta   90.00000000
_cell_angle_gamma   89.90723892
_symmetry_Int_Tables_number   1
_chemical_formula_structural   Hf5Ti11N16
_chemical_formula_sum   'Hf5 Ti11 N16'
_cell_volume   331.53381232
_cell_formula_units_Z   1
loop_
 _symmetry_equiv_pos_site_id
 _symmetry_equiv_pos_as_xyz
  1  'x, y, z'
loop_
 _atom_site_type_symbol
 _atom_site_label
 _atom_site_symmetry_multiplicity
 _atom_site_fract_x
 _atom_site_fract_y
 _atom_site_fract_z
 _atom_site_occupancy
  Ti  Ti0  1  0.99561589  0.00273812  0.00000000  1
  Ti  Ti1  1  0.25413262  0.00509564  0.50000000  1
  Ti  Ti2  1  0.25337701  0.24663711  0.00000000  1
  Ti  Ti3  1  0.26018866  0.49534006  0.50000000  1
  Ti  Ti4  1  0.50499287  0.99647648  0.00000000  1
  Ti  Ti5  1  0.74549678  0.99675248  0.50000000  1
  Ti  Ti6  1  0.74692361  0.24476410  0.00000000  1
  Ti  Ti7  1  0.50331669  0.50353303  0.00000000  1
  Ti  Ti8  1  0.50592843  0.75028853  0.50000000  1
  Ti  Ti9  1  0.73942082  0.50393860  0.50000000  1
  Ti  Ti10  1  0.74164085  0.75380018  0.00000000  1
  Hf  Hf11  1  0.99933685  0.24537431  0.50000000  1
  Hf  Hf12  1  0.99669376  0.49787307  0.00000000  1
  Hf  Hf13  1  0.99501873  0.75482491  0.50000000  1
  Hf  Hf14  1  0.25764953  0.75319058  0.00000000  1
  Hf  Hf15  1  0.50067738  0.24909555  0.50000000  1
  N  N16  1  0.25169992  0.00317779  0.00000000  1
  N  N17  1  0.25080714  0.24969350  0.50000000  1
  N  N18  1  0.99897044  0.00006538  0.50000000  1
  N  N19  1  0.99940562  0.24712922  0.00000000  1
  N  N20  1  0.25344799  0.49809434  0.00000000  1
  N  N21  1  0.25291928  0.75087777  0.50000000  1
  N  N22  1  0.99871177  0.50018633  0.50000000  1
  N  N23  1  0.99821424  0.75242299  0.00000000  1
  N  N24  1  0.74898000  0.99912600  0.00000000  1
  N  N25  1  0.74927868  0.24904497  0.50000000  1
  N  N26  1  0.50078224  0.99676215  0.50000000  1
  N  N27  1  0.50055290  0.24929587  0.00000000  1
  N  N28  1  0.74559779  0.50054332  0.00000000  1
  N  N29  1  0.74559066  0.75070207  0.50000000  1
  N  N30  1  0.50042182  0.50279752  0.50000000  1
  N  N31  1  0.50420901  0.75035803  0.00000000  1
