# generated using pymatgen
data_Ti42Al5V3
_symmetry_space_group_name_H-M   'P 1'
_cell_length_a   8.84580326
_cell_length_b   8.84063708
_cell_length_c   11.71274015
_cell_angle_alpha   73.87296768
_cell_angle_beta   83.38363560
_cell_angle_gamma   72.75522742
_symmetry_Int_Tables_number   1
_chemical_formula_structural   Ti42Al5V3
_chemical_formula_sum   'Ti42 Al5 V3'
_cell_volume   839.82630377
_cell_formula_units_Z   1
loop_
 _symmetry_equiv_pos_site_id
 _symmetry_equiv_pos_as_xyz
  1  'x, y, z'
loop_
 _atom_site_type_symbol
 _atom_site_label
 _atom_site_symmetry_multiplicity
 _atom_site_fract_x
 _atom_site_fract_y
 _atom_site_fract_z
 _atom_site_occupancy
  Al  Al0  1  0.01776673  0.09302940  0.60128795  1
  Al  Al1  1  0.21088874  0.29332977  0.60193011  1
  Al  Al2  1  0.41683229  0.49281002  0.60051783  1
  Al  Al3  1  0.83416502  0.75067549  0.39855961  1
  Al  Al4  1  0.78020562  0.50155178  0.18666014  1
  Ti  Ti5  1  0.03039907  0.80671774  0.80678929  1
  Ti  Ti6  1  0.96749528  0.26744404  0.78873634  1
  Ti  Ti7  1  0.16311055  0.47679014  0.78266982  1
  Ti  Ti8  1  0.94307436  0.56240916  0.59949296  1
  Ti  Ti9  1  0.36642715  0.67063386  0.78588529  1
  Ti  Ti10  1  0.16773632  0.77692723  0.59557137  1
  Ti  Ti11  1  0.56087123  0.87070046  0.78753457  1
  Ti  Ti12  1  0.41831750  0.20093700  0.80976900  1
  Ti  Ti13  1  0.98368429  0.40761468  0.40789583  1
  Ti  Ti14  1  0.62608021  0.39676572  0.80976680  1
  Ti  Ti15  1  0.17608094  0.60727781  0.41318354  1
  Ti  Ti16  1  0.98130165  0.69099453  0.19345488  1
  Ti  Ti17  1  0.82633648  0.59901430  0.81088196  1
  Ti  Ti18  1  0.60332324  0.70451226  0.59681606  1
  Ti  Ti19  1  0.38128977  0.80014911  0.39753561  1
  Ti  Ti20  1  0.18130064  0.89756868  0.18996990  1
  Ti  Ti21  1  0.82048350  0.89629675  0.59422355  1
  Ti  Ti22  1  0.23849022  0.13182109  0.40600266  1
  Ti  Ti23  1  0.03755595  0.23270519  0.21044094  1
  Ti  Ti24  1  0.76459442  0.06904024  0.78613018  1
  Ti  Ti25  1  0.55341132  0.14480732  0.59837245  1
  Ti  Ti26  1  0.43347279  0.34465489  0.40193975  1
  Ti  Ti27  1  0.24131016  0.42911814  0.21085030  1
  Ti  Ti28  1  0.03359407  0.51607121  0.00776101  1
  Ti  Ti29  1  0.74794187  0.34709600  0.59983571  1
  Ti  Ti30  1  0.64273400  0.54166215  0.40304385  1
  Ti  Ti31  1  0.43804862  0.62396755  0.21258648  1
  Ti  Ti32  1  0.23386433  0.71730806  0.01014319  1
  Ti  Ti33  1  0.63483866  0.82501384  0.20874167  1
  Ti  Ti34  1  0.42718409  0.91804825  0.00871420  1
  Ti  Ti35  1  0.97309163  0.98654134  0.98681424  1
  Ti  Ti36  1  0.57868471  0.01004599  0.39652707  1
  Ti  Ti37  1  0.37931933  0.09567745  0.19263085  1
  Ti  Ti38  1  0.16546883  0.18684987  0.99015266  1
  Ti  Ti39  1  0.78887742  0.20439294  0.39836904  1
  Ti  Ti40  1  0.58658660  0.29574533  0.19346671  1
  Ti  Ti41  1  0.37134854  0.38520891  0.98922329  1
  Ti  Ti42  1  0.57359156  0.58325215  0.98867040  1
  Ti  Ti43  1  0.77273729  0.78474616  0.98726627  1
  Ti  Ti44  1  0.84250718  0.02091882  0.21289992  1
  Ti  Ti45  1  0.63051615  0.11377283  0.01243538  1
  Ti  Ti46  1  0.83309394  0.31659084  0.01087039  1
  V  V47  1  0.04200596  0.93624512  0.39665840  1
  V  V48  1  0.22097057  0.01161171  0.80507184  1
  V  V49  1  0.35698918  0.96293664  0.61524873  1
