# generated using pymatgen
data_Ti21Al3V
_symmetry_space_group_name_H-M   'P 1'
_cell_length_a   7.49596259
_cell_length_b   8.94349149
_cell_length_c   13.83938570
_cell_angle_alpha   104.04869424
_cell_angle_beta   104.75147052
_cell_angle_gamma   98.80944796
_symmetry_Int_Tables_number   1
_chemical_formula_structural   Ti21Al3V
_chemical_formula_sum   'Ti42 Al6 V2'
_cell_volume   847.21956858
_cell_formula_units_Z   2
loop_
 _symmetry_equiv_pos_site_id
 _symmetry_equiv_pos_as_xyz
  1  'x, y, z'
loop_
 _atom_site_type_symbol
 _atom_site_label
 _atom_site_symmetry_multiplicity
 _atom_site_fract_x
 _atom_site_fract_y
 _atom_site_fract_z
 _atom_site_occupancy
  Al  Al0  1  0.71485697  0.31747458  0.44774661  1
  Al  Al1  1  0.99867559  0.36984662  0.81874924  1
  Al  Al2  1  0.19453251  0.25490609  0.97488387  1
  Al  Al3  1  0.90990580  0.59624130  0.40459460  1
  Al  Al4  1  0.49640532  0.62789391  0.68290270  1
  Al  Al5  1  0.38599322  0.52417816  0.93393953  1
  Ti  Ti6  1  -0.00532341  0.96938829  0.01468155  1
  Ti  Ti7  1  0.69314730  0.11205538  0.04681731  1
  Ti  Ti8  1  0.39665688  0.13146362  0.13247449  1
  Ti  Ti9  1  0.08523296  0.26779171  0.15486980  1
  Ti  Ti10  1  0.60937301  0.02234744  0.29540766  1
  Ti  Ti11  1  0.30577496  0.16123351  0.32423434  1
  Ti  Ti12  1  0.00674764  0.15838986  0.41621342  1
  Ti  Ti13  1  0.51291201  0.03499305  0.48365202  1
  Ti  Ti14  1  0.21627595  0.05235926  0.57879078  1
  Ti  Ti15  1  0.09090291  0.06830777  0.75654138  1
  Ti  Ti16  1  0.59000287  0.41086592  0.08926135  1
  Ti  Ti17  1  0.29164503  0.55277506  0.13239732  1
  Ti  Ti18  1  0.97772736  0.55718371  0.20501855  1
  Ti  Ti19  1  0.81736631  0.29275624  0.26300542  1
  Ti  Ti20  1  0.51487085  0.43381235  0.28624732  1
  Ti  Ti21  1  0.21013552  0.46539984  0.36669806  1
  Ti  Ti22  1  0.42428998  0.33461632  0.53803271  1
  Ti  Ti23  1  0.10840632  0.47540804  0.55625513  1
  Ti  Ti24  1  0.90057632  0.19429355  0.60459759  1
  Ti  Ti25  1  0.60330187  0.20324990  0.70190888  1
  Ti  Ti26  1  0.29508352  0.35304716  0.71767339  1
  Ti  Ti27  1  0.80966455  0.09637067  0.86080190  1
  Ti  Ti28  1  0.49013504  0.22254074  0.88217774  1
  Ti  Ti29  1  0.79191814  0.67954434  0.05635429  1
  Ti  Ti30  1  0.48497302  0.82186866  0.07985098  1
  Ti  Ti31  1  0.21114641  0.85596582  0.17884576  1
  Ti  Ti32  1  0.69837381  0.71341420  0.24875131  1
  Ti  Ti33  1  0.41649608  0.73398441  0.34648186  1
  Ti  Ti34  1  0.11049425  0.86316848  0.36577770  1
  Ti  Ti35  1  0.61011427  0.60891666  0.49995100  1
  Ti  Ti36  1  0.00842361  0.77297158  0.61769954  1
  Ti  Ti37  1  0.80914307  0.49325813  0.66153466  1
  Ti  Ti38  1  0.20066828  0.64652553  0.77763585  1
  Ti  Ti39  1  0.68397369  0.49816526  0.84674962  1
  Ti  Ti40  1  0.08097876  0.66946435  0.96503351  1
  Ti  Ti41  1  0.89477653  0.98850910  0.20294466  1
  Ti  Ti42  1  0.82586869  0.89272991  0.46340209  1
  Ti  Ti43  1  0.68442301  0.89871110  0.63794164  1
  Ti  Ti44  1  0.39976772  0.92311451  0.73782477  1
  Ti  Ti45  1  0.88924117  0.79189845  0.80117284  1
  Ti  Ti46  1  0.59569486  0.80905391  0.89717564  1
  Ti  Ti47  1  0.28167377  0.95280216  0.91869564  1
  V  V48  1  0.87988833  0.37903760  0.00071034  1
  V  V49  1  0.29668736  0.74570581  0.52489166  1
