# generated using pymatgen
data_Ti42Al5V3
_symmetry_space_group_name_H-M   'P 1'
_cell_length_a   8.83938623
_cell_length_b   8.85076127
_cell_length_c   11.70995672
_cell_angle_alpha   73.91380396
_cell_angle_beta   83.44783196
_cell_angle_gamma   72.71397387
_symmetry_Int_Tables_number   1
_chemical_formula_structural   Ti42Al5V3
_chemical_formula_sum   'Ti42 Al5 V3'
_cell_volume   839.99889688
_cell_formula_units_Z   1
loop_
 _symmetry_equiv_pos_site_id
 _symmetry_equiv_pos_as_xyz
  1  'x, y, z'
loop_
 _atom_site_type_symbol
 _atom_site_label
 _atom_site_symmetry_multiplicity
 _atom_site_fract_x
 _atom_site_fract_y
 _atom_site_fract_z
 _atom_site_occupancy
  Al  Al0  1  0.01793636  0.09271384  0.60137586  1
  Al  Al1  1  0.21073326  0.29336807  0.60197896  1
  Al  Al2  1  0.41689917  0.49278843  0.60060111  1
  Al  Al3  1  0.83394720  0.75067840  0.39850923  1
  Al  Al4  1  0.78035518  0.50158011  0.18666949  1
  Ti  Ti5  1  0.03010105  0.80635342  0.80690513  1
  Ti  Ti6  1  0.96760657  0.26763092  0.78856446  1
  Ti  Ti7  1  0.16336341  0.47695352  0.78262935  1
  Ti  Ti8  1  0.94325863  0.56276971  0.59959338  1
  Ti  Ti9  1  0.36650301  0.67101307  0.78610429  1
  Ti  Ti10  1  0.16792920  0.77702009  0.59559215  1
  Ti  Ti11  1  0.56122812  0.87083262  0.78747976  1
  Ti  Ti12  1  0.41821381  0.20059038  0.80994175  1
  Ti  Ti13  1  0.98357404  0.40794946  0.40798124  1
  Ti  Ti14  1  0.62572564  0.39679360  0.80962061  1
  Ti  Ti15  1  0.17628727  0.60728865  0.41317839  1
  Ti  Ti16  1  0.98134772  0.69117507  0.19340468  1
  Ti  Ti17  1  0.82618906  0.59874463  0.81102300  1
  Ti  Ti18  1  0.60339710  0.70423004  0.59691248  1
  Ti  Ti19  1  0.38140690  0.80040383  0.39746054  1
  Ti  Ti20  1  0.18134571  0.89774149  0.18987368  1
  Ti  Ti21  1  0.82027361  0.89639562  0.59419401  1
  Ti  Ti22  1  0.23827989  0.13194552  0.40599030  1
  Ti  Ti23  1  0.03744737  0.23238333  0.21044708  1
  Ti  Ti24  1  0.76495904  0.06922671  0.78589931  1
  Ti  Ti25  1  0.55327115  0.14517438  0.59851319  1
  Ti  Ti26  1  0.43355278  0.34456032  0.40190765  1
  Ti  Ti27  1  0.24119612  0.42892856  0.21084115  1
  Ti  Ti28  1  0.03355941  0.51575067  0.00784176  1
  Ti  Ti29  1  0.74828596  0.34698743  0.59975920  1
  Ti  Ti30  1  0.64264726  0.54150336  0.40310531  1
  Ti  Ti31  1  0.43780373  0.62378238  0.21263337  1
  Ti  Ti32  1  0.23353350  0.71702718  0.01037574  1
  Ti  Ti33  1  0.63468127  0.82478585  0.20873658  1
  Ti  Ti34  1  0.42686229  0.91780568  0.00869784  1
  Ti  Ti35  1  0.97320086  0.98680597  0.98670171  1
  Ti  Ti36  1  0.57865295  0.01022705  0.39655845  1
  Ti  Ti37  1  0.37939511  0.09595155  0.19252823  1
  Ti  Ti38  1  0.16553146  0.18712324  0.99009337  1
  Ti  Ti39  1  0.78907577  0.20440494  0.39839062  1
  Ti  Ti40  1  0.58674924  0.29597659  0.19333582  1
  Ti  Ti41  1  0.37158989  0.38541791  0.98908082  1
  Ti  Ti42  1  0.57368389  0.58334699  0.98866662  1
  Ti  Ti43  1  0.77277872  0.78486349  0.98726030  1
  Ti  Ti44  1  0.84228670  0.02076780  0.21298911  1
  Ti  Ti45  1  0.63037201  0.11355281  0.01242376  1
  Ti  Ti46  1  0.83291335  0.31643720  0.01074356  1
  V  V47  1  0.04201430  0.93594526  0.39668599  1
  V  V48  1  0.22076033  0.01132352  0.80508668  1
  V  V49  1  0.35729365  0.96297930  0.61511295  1
