# generated using pymatgen
data_Ti22Al2V
_symmetry_space_group_name_H-M   'P 1'
_cell_length_a   8.17600214
_cell_length_b   8.09068973
_cell_length_c   13.19804077
_cell_angle_alpha   97.36367948
_cell_angle_beta   97.18960194
_cell_angle_gamma   96.03649158
_symmetry_Int_Tables_number   1
_chemical_formula_structural   Ti22Al2V
_chemical_formula_sum   'Ti44 Al4 V2'
_cell_volume   852.49367601
_cell_formula_units_Z   2
loop_
 _symmetry_equiv_pos_site_id
 _symmetry_equiv_pos_as_xyz
  1  'x, y, z'
loop_
 _atom_site_type_symbol
 _atom_site_label
 _atom_site_symmetry_multiplicity
 _atom_site_fract_x
 _atom_site_fract_y
 _atom_site_fract_z
 _atom_site_occupancy
  Al  Al0  1  0.52778747  0.20555763  0.90889103  1
  Al  Al1  1  0.45991807  0.78445088  0.07263154  1
  Al  Al2  1  0.71606598  0.48967220  0.87097670  1
  Al  Al3  1  0.90105409  0.96297174  0.22306703  1
  Ti  Ti4  1  0.00334295  -0.00304510  0.01515478  1
  Ti  Ti5  1  0.69529675  0.06585362  0.06707679  1
  Ti  Ti6  1  0.38432147  0.16749516  0.10232665  1
  Ti  Ti7  1  0.12768220  0.22631291  0.20222554  1
  Ti  Ti8  1  0.58092754  0.03096694  0.25158233  1
  Ti  Ti9  1  0.33768656  0.10799851  0.36673696  1
  Ti  Ti10  1  0.01557727  0.19955480  0.40324008  1
  Ti  Ti11  1  0.53119902  0.99002664  0.53251813  1
  Ti  Ti12  1  0.21493948  0.07889096  0.56168712  1
  Ti  Ti13  1  0.07531183  0.02817447  0.75523123  1
  Ti  Ti14  1  0.91187366  0.34423375  0.02584825  1
  Ti  Ti15  1  0.60527062  0.44196994  0.08723026  1
  Ti  Ti16  1  0.28612095  0.50934735  0.14259710  1
  Ti  Ti17  1  0.98401789  0.61393558  0.18347525  1
  Ti  Ti18  1  0.81498630  0.31026303  0.23871196  1
  Ti  Ti19  1  0.49684580  0.40222965  0.29637610  1
  Ti  Ti20  1  0.18219338  0.50299599  0.34775409  1
  Ti  Ti21  1  0.68066223  0.26019439  0.44665647  1
  Ti  Ti22  1  0.39330077  0.38575232  0.51110987  1
  Ti  Ti23  1  0.11243887  0.41286712  0.59333967  1
  Ti  Ti24  1  0.87845202  0.15610519  0.60936935  1
  Ti  Ti25  1  0.60231056  0.27040358  0.68977923  1
  Ti  Ti26  1  0.30773166  0.28887251  0.75055244  1
  Ti  Ti27  1  0.00880257  0.39154840  0.79700469  1
  Ti  Ti28  1  0.19958681  0.26374976  0.94285773  1
  Ti  Ti29  1  0.78174900  0.73514733  0.04648640  1
  Ti  Ti30  1  0.21039665  0.88793848  0.18064057  1
  Ti  Ti31  1  0.66968071  0.69575908  0.23701134  1
  Ti  Ti32  1  0.41392052  0.76310069  0.34170334  1
  Ti  Ti33  1  0.09113289  0.83799109  0.37832015  1
  Ti  Ti34  1  0.89095520  0.53932837  0.42468991  1
  Ti  Ti35  1  0.61649100  0.65836317  0.50243845  1
  Ti  Ti36  1  0.28740884  0.72193959  0.54295855  1
  Ti  Ti37  1  0.96300162  0.80646456  0.57684093  1
  Ti  Ti38  1  0.81671987  0.50756406  0.63556867  1
  Ti  Ti39  1  0.50948485  0.60947851  0.70205253  1
  Ti  Ti40  1  0.18824945  0.68966553  0.73997837  1
  Ti  Ti41  1  0.38921447  0.55041700  0.89914591  1
  Ti  Ti42  1  0.10280334  0.65373258  0.99135565  1
  Ti  Ti43  1  0.77068866  0.92610064  0.41403721  1
  Ti  Ti44  1  0.42094911  0.96965953  0.72912927  1
  Ti  Ti45  1  0.91387989  0.76887513  0.82939237  1
  Ti  Ti46  1  0.60877462  0.85093298  0.88212642  1
  Ti  Ti47  1  0.27851809  0.92541004  0.91788256  1
  V  V48  1  0.81268479  0.11400555  0.84022369  1
  V  V49  1  0.72759163  0.89877614  0.69200936  1
