# generated using pymatgen
data_Ti44Al5V
_symmetry_space_group_name_H-M   'P 1'
_cell_length_a   7.45875087
_cell_length_b   10.38628032
_cell_length_c   11.65746146
_cell_angle_alpha   76.12208333
_cell_angle_beta   87.65751419
_cell_angle_gamma   77.91707493
_symmetry_Int_Tables_number   1
_chemical_formula_structural   Ti44Al5V
_chemical_formula_sum   'Ti44 Al5 V1'
_cell_volume   857.26133666
_cell_formula_units_Z   1
loop_
 _symmetry_equiv_pos_site_id
 _symmetry_equiv_pos_as_xyz
  1  'x, y, z'
loop_
 _atom_site_type_symbol
 _atom_site_label
 _atom_site_symmetry_multiplicity
 _atom_site_fract_x
 _atom_site_fract_y
 _atom_site_fract_z
 _atom_site_occupancy
  Al  Al0  1  0.31556404  0.84844193  0.98684094  1
  Al  Al1  1  0.52231411  0.61033184  0.75850746  1
  Al  Al2  1  0.63834407  0.89002980  0.07774483  1
  Al  Al3  1  0.51601257  0.65191551  0.18215576  1
  Al  Al4  1  0.92524866  0.20761639  0.15453357  1
  Ti  Ti5  1  0.79691091  0.92670216  0.83435455  1
  Ti  Ti6  1  0.97192658  0.96781814  0.59907944  1
  Ti  Ti7  1  0.67075415  0.68915808  0.94414487  1
  Ti  Ti8  1  0.83395027  0.73032759  0.70285227  1
  Ti  Ti9  1  0.47302156  0.88950001  0.74270880  1
  Ti  Ti10  1  0.64090711  0.93310546  0.50548198  1
  Ti  Ti11  1  0.80854056  0.96691372  0.25242862  1
  Ti  Ti12  1  0.72518903  0.40524744  0.95011750  1
  Ti  Ti13  1  0.87522674  0.45377081  0.71223837  1
  Ti  Ti14  1  0.16977895  0.76782773  0.80270815  1
  Ti  Ti15  1  0.32934442  0.80229580  0.55595847  1
  Ti  Ti16  1  0.85056102  0.69081791  0.26394195  1
  Ti  Ti17  1  0.50624300  0.84426312  0.32377799  1
  Ti  Ti18  1  0.00034669  0.73164905  0.03631676  1
  Ti  Ti19  1  0.76263467  0.20830036  0.81560107  1
  Ti  Ti20  1  0.39793385  0.37031299  0.86031493  1
  Ti  Ti21  1  0.03399128  0.53562575  0.90273886  1
  Ti  Ti22  1  0.91380193  0.25273732  0.57690405  1
  Ti  Ti23  1  0.54325938  0.41968350  0.62123104  1
  Ti  Ti24  1  0.19332273  0.57058017  0.67034074  1
  Ti  Ti25  1  0.71528781  0.46089626  0.38984646  1
  Ti  Ti26  1  0.36561949  0.60875942  0.41555425  1
  Ti  Ti27  1  0.97982863  0.77121109  0.46106660  1
  Ti  Ti28  1  0.87494889  0.48764988  0.13585165  1
  Ti  Ti29  1  0.16565347  0.80501393  0.22850366  1
  Ti  Ti30  1  0.44899951  0.08523550  0.88142333  1
  Ti  Ti31  1  0.08095501  0.25360846  0.91995949  1
  Ti  Ti32  1  0.60026453  0.13167535  0.63832249  1
  Ti  Ti33  1  0.23841312  0.28947102  0.68017247  1
  Ti  Ti34  1  0.76321713  0.17260731  0.38963522  1
  Ti  Ti35  1  0.40375179  0.32777340  0.43729486  1
  Ti  Ti36  1  0.05108824  0.49072947  0.48041298  1
  Ti  Ti37  1  0.56931976  0.37157403  0.19908618  1
  Ti  Ti38  1  0.19915907  0.52551491  0.23525703  1
  Ti  Ti39  1  0.36817997  0.56841647  -0.00299961  1
  Ti  Ti40  1  0.11595911  0.04810696  0.79023479  1
  Ti  Ti41  1  0.27780719  0.08863602  0.54400880  1
  Ti  Ti42  1  0.43463610  0.13290046  0.30415948  1
  Ti  Ti43  1  0.06467491  0.29454969  0.33945451  1
  Ti  Ti44  1  0.59453777  0.16627905  0.06922849  1
  Ti  Ti45  1  0.24333465  0.32914609  0.10657746  1
  Ti  Ti46  1  0.12647113  0.00862518  0.35838281  1
  Ti  Ti47  1  0.27966824  0.04963737  0.12087741  1
  Ti  Ti48  1  0.95046608  0.01336601  0.01810179  1
  V  V49  1  0.67263013  0.65364414  0.52656443  1
