# generated using pymatgen
data_Ti44Al5V
_symmetry_space_group_name_H-M   'P 1'
_cell_length_a   7.45574784
_cell_length_b   10.38467394
_cell_length_c   11.65997760
_cell_angle_alpha   76.11968375
_cell_angle_beta   87.63764182
_cell_angle_gamma   77.90827206
_symmetry_Int_Tables_number   1
_chemical_formula_structural   Ti44Al5V
_chemical_formula_sum   'Ti44 Al5 V1'
_cell_volume   856.93415293
_cell_formula_units_Z   1
loop_
 _symmetry_equiv_pos_site_id
 _symmetry_equiv_pos_as_xyz
  1  'x, y, z'
loop_
 _atom_site_type_symbol
 _atom_site_label
 _atom_site_symmetry_multiplicity
 _atom_site_fract_x
 _atom_site_fract_y
 _atom_site_fract_z
 _atom_site_occupancy
  Al  Al0  1  0.31552223  0.84847274  0.98682309  1
  Al  Al1  1  0.52235300  0.61033609  0.75851063  1
  Al  Al2  1  0.63831591  0.88999104  0.07774850  1
  Al  Al3  1  0.51605205  0.65191619  0.18215938  1
  Al  Al4  1  0.92519548  0.20762162  0.15453888  1
  Ti  Ti5  1  0.79689815  0.92664299  0.83445605  1
  Ti  Ti6  1  0.97192446  0.96782567  0.59911641  1
  Ti  Ti7  1  0.67071385  0.68914663  0.94410108  1
  Ti  Ti8  1  0.83392213  0.73041187  0.70278436  1
  Ti  Ti9  1  0.47297739  0.88956490  0.74270548  1
  Ti  Ti10  1  0.64097913  0.93312742  0.50536476  1
  Ti  Ti11  1  0.80835664  0.96698003  0.25238482  1
  Ti  Ti12  1  0.72519981  0.40520496  0.95015664  1
  Ti  Ti13  1  0.87530323  0.45378009  0.71231901  1
  Ti  Ti14  1  0.16986996  0.76777806  0.80276479  1
  Ti  Ti15  1  0.32939516  0.80230876  0.55605749  1
  Ti  Ti16  1  0.85054426  0.69084433  0.26403052  1
  Ti  Ti17  1  0.50605091  0.84431493  0.32375327  1
  Ti  Ti18  1  0.00029944  0.73162715  0.03631715  1
  Ti  Ti19  1  0.76265435  0.20830067  0.81558114  1
  Ti  Ti20  1  0.39787044  0.37039667  0.86026183  1
  Ti  Ti21  1  0.03401200  0.53565793  0.90267178  1
  Ti  Ti22  1  0.91380098  0.25277210  0.57690565  1
  Ti  Ti23  1  0.54340352  0.41965645  0.62121756  1
  Ti  Ti24  1  0.19341324  0.57063024  0.67018546  1
  Ti  Ti25  1  0.71527841  0.46094914  0.38973623  1
  Ti  Ti26  1  0.36546690  0.60881659  0.41559194  1
  Ti  Ti27  1  0.97998125  0.77118166  0.46109307  1
  Ti  Ti28  1  0.87496154  0.48769317  0.13582016  1
  Ti  Ti29  1  0.16562996  0.80500466  0.22838824  1
  Ti  Ti30  1  0.44892416  0.08527569  0.88146753  1
  Ti  Ti31  1  0.08098262  0.25356557  0.91996899  1
  Ti  Ti32  1  0.60034324  0.13158144  0.63838986  1
  Ti  Ti33  1  0.23846851  0.28939597  0.68023803  1
  Ti  Ti34  1  0.76319302  0.17262026  0.38969772  1
  Ti  Ti35  1  0.40373902  0.32777830  0.43739536  1
  Ti  Ti36  1  0.05102270  0.49065413  0.48043415  1
  Ti  Ti37  1  0.56932817  0.37152900  0.19906926  1
  Ti  Ti38  1  0.19922423  0.52541201  0.23537616  1
  Ti  Ti39  1  0.36814970  0.56845534  -0.00289814  1
  Ti  Ti40  1  0.11595323  0.04806516  0.79019876  1
  Ti  Ti41  1  0.27781147  0.08869369  0.54393695  1
  Ti  Ti42  1  0.43459564  0.13297077  0.30416401  1
  Ti  Ti43  1  0.06470834  0.29445986  0.33935733  1
  Ti  Ti44  1  0.59451847  0.16629121  0.06912705  1
  Ti  Ti45  1  0.24329187  0.32922593  0.10647107  1
  Ti  Ti46  1  0.12645611  0.00854451  0.35840117  1
  Ti  Ti47  1  0.27969532  0.04960101  0.12098210  1
  Ti  Ti48  1  0.95049841  0.01336595  0.01809453  1
  V  V49  1  0.67274996  0.65355946  0.52658273  1
