# generated using pymatgen
data_AlCrFeCoNi
_symmetry_space_group_name_H-M   'P 1'
_cell_length_a   4.44875026
_cell_length_b   6.62929799
_cell_length_c   8.68548117
_cell_angle_alpha   72.26944275
_cell_angle_beta   81.79610861
_cell_angle_gamma   70.89012048
_symmetry_Int_Tables_number   1
_chemical_formula_structural   AlCrFeCoNi
_chemical_formula_sum   'Al4 Cr4 Fe4 Co4 Ni4'
_cell_volume   230.27687536
_cell_formula_units_Z   4
loop_
 _symmetry_equiv_pos_site_id
 _symmetry_equiv_pos_as_xyz
  1  'x, y, z'
loop_
 _atom_site_type_symbol
 _atom_site_label
 _atom_site_symmetry_multiplicity
 _atom_site_fract_x
 _atom_site_fract_y
 _atom_site_fract_z
 _atom_site_occupancy
  Al  Al0  1  0.70777342  0.08372829  0.76034929  1
  Al  Al1  1  0.79242641  0.42110093  0.47988790  1
  Al  Al2  1  0.11036216  0.31285998  0.75441614  1
  Al  Al3  1  0.67791929  0.10387000  0.26447155  1
  Co  Co4  1  0.19151393  0.61949949  0.48857866  1
  Co  Co5  1  0.48233312  0.50448317  0.24216816  1
  Co  Co6  1  0.09065449  0.29729122  0.24396375  1
  Co  Co7  1  0.41070562  0.20016048  0.00688060  1
  Cr  Cr8  1  0.30973077  0.87811254  0.75175598  1
  Cr  Cr9  1  0.30042713  0.88872399  0.24241558  1
  Cr  Cr10  1  0.79458852  0.39923902  0.00859493  1
  Cr  Cr11  1  0.18494249  0.59652253  0.00317769  1
  Fe  Fe12  1  0.90788994  0.70755072  0.23479846  1
  Fe  Fe13  1  0.58772465  0.78744098  0.00265819  1
  Fe  Fe14  1  0.02571923  0.99423209  0.50384916  1
  Fe  Fe15  1  0.00556288  0.00111658  0.00335855  1
  Ni  Ni16  1  0.90093452  0.69814394  0.75012414  1
  Ni  Ni17  1  0.51289654  0.49284371  0.74506410  1
  Ni  Ni18  1  0.60675486  0.80733996  0.50032950  1
  Ni  Ni19  1  0.39914003  0.20574039  0.51315765  1
