# generated using pymatgen
data_TiN
_symmetry_space_group_name_H-M   'P 1'
_cell_length_a   9.01198925
_cell_length_b   9.01198925
_cell_length_c   9.01198924
_cell_angle_alpha   60.00000000
_cell_angle_beta   59.99999993
_cell_angle_gamma   59.99999998
_symmetry_Int_Tables_number   1
_chemical_formula_structural   TiN
_chemical_formula_sum   'Ti27 N27'
_cell_volume   517.54366460
_cell_formula_units_Z   27
loop_
 _symmetry_equiv_pos_site_id
 _symmetry_equiv_pos_as_xyz
  1  'x, y, z'
loop_
 _atom_site_type_symbol
 _atom_site_label
 _atom_site_symmetry_multiplicity
 _atom_site_fract_x
 _atom_site_fract_y
 _atom_site_fract_z
 _atom_site_occupancy
  Ti  Ti0  1  0.16666667  0.16666667  0.16666667  1
  Ti  Ti1  1  0.16666667  0.16666667  0.50000000  1
  Ti  Ti2  1  0.16666667  0.16666667  0.83333333  1
  Ti  Ti3  1  0.16666667  0.50000000  0.16666667  1
  Ti  Ti4  1  0.16666667  0.50000000  0.50000000  1
  Ti  Ti5  1  0.16666667  0.50000000  0.83333333  1
  Ti  Ti6  1  0.16666667  0.83333333  0.16666667  1
  Ti  Ti7  1  0.16666667  0.83333333  0.50000000  1
  Ti  Ti8  1  0.16666667  0.83333333  0.83333333  1
  Ti  Ti9  1  0.50000000  0.16666667  0.16666667  1
  Ti  Ti10  1  0.50000000  0.16666667  0.50000000  1
  Ti  Ti11  1  0.50000000  0.16666667  0.83333333  1
  Ti  Ti12  1  0.50000000  0.50000000  0.16666667  1
  Ti  Ti13  1  0.50000000  0.50000000  0.50000000  1
  Ti  Ti14  1  0.50000000  0.50000000  0.83333333  1
  Ti  Ti15  1  0.50000000  0.83333333  0.16666667  1
  Ti  Ti16  1  0.50000000  0.83333333  0.50000000  1
  Ti  Ti17  1  0.50000000  0.83333333  0.83333333  1
  Ti  Ti18  1  0.83333333  0.16666667  0.16666667  1
  Ti  Ti19  1  0.83333333  0.16666667  0.50000000  1
  Ti  Ti20  1  0.83333333  0.16666667  0.83333333  1
  Ti  Ti21  1  0.83333333  0.50000000  0.16666667  1
  Ti  Ti22  1  0.83333333  0.50000000  0.50000000  1
  Ti  Ti23  1  0.83333333  0.50000000  0.83333333  1
  Ti  Ti24  1  0.83333333  0.83333333  0.16666667  1
  Ti  Ti25  1  0.83333333  0.83333333  0.50000000  1
  Ti  Ti26  1  0.83333333  0.83333333  0.83333333  1
  N  N27  1  0.00000000  0.00000000  0.00000000  1
  N  N28  1  0.00000000  0.00000000  0.33333333  1
  N  N29  1  0.00000000  0.00000000  0.66666667  1
  N  N30  1  0.00000000  0.33333333  0.00000000  1
  N  N31  1  0.00000000  0.33333333  0.33333333  1
  N  N32  1  0.00000000  0.33333333  0.66666667  1
  N  N33  1  0.00000000  0.66666667  0.00000000  1
  N  N34  1  0.00000000  0.66666667  0.33333333  1
  N  N35  1  0.00000000  0.66666667  0.66666667  1
  N  N36  1  0.33333333  0.00000000  0.00000000  1
  N  N37  1  0.33333333  0.00000000  0.33333333  1
  N  N38  1  0.33333333  0.00000000  0.66666667  1
  N  N39  1  0.33333333  0.33333333  0.00000000  1
  N  N40  1  0.33333333  0.33333333  0.33333333  1
  N  N41  1  0.33333333  0.33333333  0.66666667  1
  N  N42  1  0.33333333  0.66666667  0.00000000  1
  N  N43  1  0.33333333  0.66666667  0.33333333  1
  N  N44  1  0.33333333  0.66666667  0.66666667  1
  N  N45  1  0.66666667  0.00000000  0.00000000  1
  N  N46  1  0.66666667  0.00000000  0.33333333  1
  N  N47  1  0.66666667  0.00000000  0.66666667  1
  N  N48  1  0.66666667  0.33333333  0.00000000  1
  N  N49  1  0.66666667  0.33333333  0.33333333  1
  N  N50  1  0.66666667  0.33333333  0.66666667  1
  N  N51  1  0.66666667  0.66666667  0.00000000  1
  N  N52  1  0.66666667  0.66666667  0.33333333  1
  N  N53  1  0.66666667  0.66666667  0.66666667  1
