# generated using pymatgen
data_HfN
_symmetry_space_group_name_H-M   'P 1'
_cell_length_a   9.61800442
_cell_length_b   9.61800442
_cell_length_c   9.61800444
_cell_angle_alpha   60.00000000
_cell_angle_beta   60.00000005
_cell_angle_gamma   60.00000000
_symmetry_Int_Tables_number   1
_chemical_formula_structural   HfN
_chemical_formula_sum   'Hf27 N27'
_cell_volume   629.12931184
_cell_formula_units_Z   27
loop_
 _symmetry_equiv_pos_site_id
 _symmetry_equiv_pos_as_xyz
  1  'x, y, z'
loop_
 _atom_site_type_symbol
 _atom_site_label
 _atom_site_symmetry_multiplicity
 _atom_site_fract_x
 _atom_site_fract_y
 _atom_site_fract_z
 _atom_site_occupancy
  Hf  Hf0  1  0.00000000  0.00000000  0.00000000  1
  Hf  Hf1  1  0.00000000  0.00000000  0.33333333  1
  Hf  Hf2  1  0.00000000  0.00000000  0.66666667  1
  Hf  Hf3  1  0.00000000  0.33333333  0.00000000  1
  Hf  Hf4  1  0.00000000  0.33333333  0.33333333  1
  Hf  Hf5  1  0.00000000  0.33333333  0.66666667  1
  Hf  Hf6  1  0.00000000  0.66666667  0.00000000  1
  Hf  Hf7  1  0.00000000  0.66666667  0.33333333  1
  Hf  Hf8  1  0.00000000  0.66666667  0.66666667  1
  Hf  Hf9  1  0.33333333  0.00000000  0.00000000  1
  Hf  Hf10  1  0.33333333  0.00000000  0.33333333  1
  Hf  Hf11  1  0.33333333  0.00000000  0.66666667  1
  Hf  Hf12  1  0.33333333  0.33333333  0.00000000  1
  Hf  Hf13  1  0.33333333  0.33333333  0.33333333  1
  Hf  Hf14  1  0.33333333  0.33333333  0.66666667  1
  Hf  Hf15  1  0.33333333  0.66666667  0.00000000  1
  Hf  Hf16  1  0.33333333  0.66666667  0.33333333  1
  Hf  Hf17  1  0.33333333  0.66666667  0.66666667  1
  Hf  Hf18  1  0.66666667  0.00000000  0.00000000  1
  Hf  Hf19  1  0.66666667  0.00000000  0.33333333  1
  Hf  Hf20  1  0.66666667  0.00000000  0.66666667  1
  Hf  Hf21  1  0.66666667  0.33333333  0.00000000  1
  Hf  Hf22  1  0.66666667  0.33333333  0.33333333  1
  Hf  Hf23  1  0.66666667  0.33333333  0.66666667  1
  Hf  Hf24  1  0.66666667  0.66666667  0.00000000  1
  Hf  Hf25  1  0.66666667  0.66666667  0.33333333  1
  Hf  Hf26  1  0.66666667  0.66666667  0.66666667  1
  N  N27  1  0.16666667  0.16666667  0.16666667  1
  N  N28  1  0.16666667  0.16666667  0.50000000  1
  N  N29  1  0.16666667  0.16666667  0.83333333  1
  N  N30  1  0.16666667  0.50000000  0.16666667  1
  N  N31  1  0.16666667  0.50000000  0.50000000  1
  N  N32  1  0.16666667  0.50000000  0.83333333  1
  N  N33  1  0.16666667  0.83333333  0.16666667  1
  N  N34  1  0.16666667  0.83333333  0.50000000  1
  N  N35  1  0.16666667  0.83333333  0.83333333  1
  N  N36  1  0.50000000  0.16666667  0.16666667  1
  N  N37  1  0.50000000  0.16666667  0.50000000  1
  N  N38  1  0.50000000  0.16666667  0.83333333  1
  N  N39  1  0.50000000  0.50000000  0.16666667  1
  N  N40  1  0.50000000  0.50000000  0.50000000  1
  N  N41  1  0.50000000  0.50000000  0.83333333  1
  N  N42  1  0.50000000  0.83333333  0.16666667  1
  N  N43  1  0.50000000  0.83333333  0.50000000  1
  N  N44  1  0.50000000  0.83333333  0.83333333  1
  N  N45  1  0.83333333  0.16666667  0.16666667  1
  N  N46  1  0.83333333  0.16666667  0.50000000  1
  N  N47  1  0.83333333  0.16666667  0.83333333  1
  N  N48  1  0.83333333  0.50000000  0.16666667  1
  N  N49  1  0.83333333  0.50000000  0.50000000  1
  N  N50  1  0.83333333  0.50000000  0.83333333  1
  N  N51  1  0.83333333  0.83333333  0.16666667  1
  N  N52  1  0.83333333  0.83333333  0.50000000  1
  N  N53  1  0.83333333  0.83333333  0.83333333  1
