# generated using pymatgen
data_HfTiN2
_symmetry_space_group_name_H-M   'P 1'
_cell_length_a   7.60016868
_cell_length_b   7.63117573
_cell_length_c   3.12226638
_cell_angle_alpha   90.00000000
_cell_angle_beta   90.00000000
_cell_angle_gamma   109.36949534
_symmetry_Int_Tables_number   1
_chemical_formula_structural   HfTiN2
_chemical_formula_sum   'Hf4 Ti4 N8'
_cell_volume   170.83632484
_cell_formula_units_Z   4
loop_
 _symmetry_equiv_pos_site_id
 _symmetry_equiv_pos_as_xyz
  1  'x, y, z'
loop_
 _atom_site_type_symbol
 _atom_site_label
 _atom_site_symmetry_multiplicity
 _atom_site_fract_x
 _atom_site_fract_y
 _atom_site_fract_z
 _atom_site_occupancy
  Ti  Ti0  1  0.13403579  0.87951927  0.50000000  1
  Ti  Ti1  1  0.00323793  0.50554020  0.00000000  1
  Ti  Ti2  1  0.24958021  0.24131938  0.00000000  1
  Ti  Ti3  1  0.48717451  0.99911598  0.00000000  1
  N  N4  1  0.12656933  0.37464636  0.50000000  1
  N  N5  1  0.00657819  0.99966960  0.00000000  1
  N  N6  1  0.36993575  0.12161955  0.50000000  1
  N  N7  1  0.24570494  0.75412965  0.00000000  1
  N  N8  1  0.62331176  0.87717971  0.50000000  1
  N  N9  1  0.49783127  0.49989940  0.00000000  1
  N  N10  1  0.88011690  0.62412171  0.50000000  1
  N  N11  1  0.75025629  0.24819433  0.00000000  1
  Hf  Hf12  1  0.88166418  0.13124876  0.50000000  1
  Hf  Hf13  1  0.75777065  0.75203260  0.00000000  1
  Hf  Hf14  1  0.36561317  0.62459756  0.50000000  1
  Hf  Hf15  1  0.62061915  0.36716595  0.50000000  1
