# generated using pymatgen
data_HfTiN2
_symmetry_space_group_name_H-M   'P 1'
_cell_length_a   7.67016868
_cell_length_b   7.70117573
_cell_length_c   3.19226638
_cell_angle_alpha   90.00000000
_cell_angle_beta   90.00000000
_cell_angle_gamma   109.36949531
_symmetry_Int_Tables_number   1
_chemical_formula_structural   HfTiN2
_chemical_formula_sum   'Hf4 Ti4 N8'
_cell_volume   177.89209685
_cell_formula_units_Z   4
loop_
 _symmetry_equiv_pos_site_id
 _symmetry_equiv_pos_as_xyz
  1  'x, y, z'
loop_
 _atom_site_type_symbol
 _atom_site_label
 _atom_site_symmetry_multiplicity
 _atom_site_fract_x
 _atom_site_fract_y
 _atom_site_fract_z
 _atom_site_occupancy
  Ti  Ti0  1  0.13546830  0.88015239  0.50000000  1
  Ti  Ti1  1  0.00347114  0.50620614  0.00000000  1
  Ti  Ti2  1  0.24949952  0.24001566  0.00000000  1
  Ti  Ti3  1  0.48542758  0.99921065  0.00000000  1
  N  N4  1  0.12641699  0.37483363  0.50000000  1
  N  N5  1  0.00485110  0.00031624  0.00000000  1
  N  N6  1  0.37044729  0.12188175  0.50000000  1
  N  N7  1  0.24705318  0.75339535  0.00000000  1
  N  N8  1  0.62470308  0.87551257  0.50000000  1
  N  N9  1  0.49870993  0.50033076  0.00000000  1
  N  N10  1  0.87831365  0.62484337  0.50000000  1
  N  N11  1  0.74997851  0.24820253  0.00000000  1
  Hf  Hf12  1  0.88183228  0.13247580  0.50000000  1
  Hf  Hf13  1  0.75854736  0.75229854  0.00000000  1
  Hf  Hf14  1  0.36497047  0.62387340  0.50000000  1
  Hf  Hf15  1  0.62030967  0.36645123  0.50000000  1
