# generated using pymatgen
data_HfTiN2
_symmetry_space_group_name_H-M   'P 1'
_cell_length_a   7.59016868
_cell_length_b   7.62117573
_cell_length_c   3.11226638
_cell_angle_alpha   90.00000000
_cell_angle_beta   90.00000000
_cell_angle_gamma   109.36949532
_symmetry_Int_Tables_number   1
_chemical_formula_structural   HfTiN2
_chemical_formula_sum   'Hf4 Ti4 N8'
_cell_volume   169.84225462
_cell_formula_units_Z   4
loop_
 _symmetry_equiv_pos_site_id
 _symmetry_equiv_pos_as_xyz
  1  'x, y, z'
loop_
 _atom_site_type_symbol
 _atom_site_label
 _atom_site_symmetry_multiplicity
 _atom_site_fract_x
 _atom_site_fract_y
 _atom_site_fract_z
 _atom_site_occupancy
  Ti  Ti0  1  0.13370071  0.87945379  0.50000000  1
  Ti  Ti1  1  0.00319983  0.50554210  0.00000000  1
  Ti  Ti2  1  0.24958516  0.24153974  0.00000000  1
  Ti  Ti3  1  0.48754614  0.99905560  0.00000000  1
  N  N4  1  0.12657193  0.37462865  0.50000000  1
  N  N5  1  0.00689834  0.99958341  0.00000000  1
  N  N6  1  0.36985791  0.12159229  0.50000000  1
  N  N7  1  0.24551011  0.75427859  0.00000000  1
  N  N8  1  0.62304570  0.87746489  0.50000000  1
  N  N9  1  0.49763361  0.49974474  0.00000000  1
  N  N10  1  0.88044471  0.62400278  0.50000000  1
  N  N11  1  0.75036440  0.24822293  0.00000000  1
  Hf  Hf12  1  0.88162271  0.13096944  0.50000000  1
  Hf  Hf13  1  0.75757495  0.75193484  0.00000000  1
  Hf  Hf14  1  0.36578010  0.62473459  0.50000000  1
  Hf  Hf15  1  0.62066373  0.36725165  0.50000000  1
