# generated using pymatgen
data_HfTiN2
_symmetry_space_group_name_H-M   'P 1'
_cell_length_a   7.61016868
_cell_length_b   7.64117573
_cell_length_c   3.13226638
_cell_angle_alpha   90.00000000
_cell_angle_beta   90.00000000
_cell_angle_gamma   109.36949526
_symmetry_Int_Tables_number   1
_chemical_formula_structural   HfTiN2
_chemical_formula_sum   'Hf4 Ti4 N8'
_cell_volume   171.83385825
_cell_formula_units_Z   4
loop_
 _symmetry_equiv_pos_site_id
 _symmetry_equiv_pos_as_xyz
  1  'x, y, z'
loop_
 _atom_site_type_symbol
 _atom_site_label
 _atom_site_symmetry_multiplicity
 _atom_site_fract_x
 _atom_site_fract_y
 _atom_site_fract_z
 _atom_site_occupancy
  Ti  Ti0  1  0.13422684  0.87949480  0.50000000  1
  Ti  Ti1  1  0.00324077  0.50558136  0.00000000  1
  Ti  Ti2  1  0.24957175  0.24117182  0.00000000  1
  Ti  Ti3  1  0.48697776  0.99914760  0.00000000  1
  N  N4  1  0.12653592  0.37466299  0.50000000  1
  N  N5  1  0.00636013  0.99973764  0.00000000  1
  N  N6  1  0.37002683  0.12166021  0.50000000  1
  N  N7  1  0.24587534  0.75403413  0.00000000  1
  N  N8  1  0.62350079  0.87699169  0.50000000  1
  N  N9  1  0.49790709  0.49996480  0.00000000  1
  N  N10  1  0.87988391  0.62422628  0.50000000  1
  N  N11  1  0.75023795  0.24820434  0.00000000  1
  Hf  Hf12  1  0.88169404  0.13139631  0.50000000  1
  Hf  Hf13  1  0.75787109  0.75208256  0.00000000  1
  Hf  Hf14  1  0.36551380  0.62453700  0.50000000  1
  Hf  Hf15  1  0.62057602  0.36710648  0.50000000  1
