# generated using pymatgen
data_HfTiN2
_symmetry_space_group_name_H-M   'P 1'
_cell_length_a   7.60516900
_cell_length_b   7.63617600
_cell_length_c   3.12726600
_cell_angle_alpha   90.00000000
_cell_angle_beta   90.00000000
_cell_angle_gamma   109.36949532
_symmetry_Int_Tables_number   1
_chemical_formula_structural   HfTiN2
_chemical_formula_sum   'Hf4 Ti4 N8'
_cell_volume   171.33465066
_cell_formula_units_Z   4
loop_
 _symmetry_equiv_pos_site_id
 _symmetry_equiv_pos_as_xyz
  1  'x, y, z'
loop_
 _atom_site_type_symbol
 _atom_site_label
 _atom_site_symmetry_multiplicity
 _atom_site_fract_x
 _atom_site_fract_y
 _atom_site_fract_z
 _atom_site_occupancy
  Ti  Ti0  1  0.13397518  0.87956171  0.50000000  1
  Ti  Ti1  1  0.00323766  0.50555229  0.00000000  1
  Ti  Ti2  1  0.24966728  0.24141730  0.00000000  1
  Ti  Ti3  1  0.48718766  0.99917526  0.00000000  1
  N  N4  1  0.12655950  0.37465655  0.50000000  1
  N  N5  1  0.00651284  0.99965822  0.00000000  1
  N  N6  1  0.36996053  0.12167729  0.50000000  1
  N  N7  1  0.24574602  0.75413857  0.00000000  1
  N  N8  1  0.62333134  0.87715890  0.50000000  1
  N  N9  1  0.49777314  0.49984798  0.00000000  1
  N  N10  1  0.88006635  0.62412965  0.50000000  1
  N  N11  1  0.75036509  0.24819907  0.00000000  1
  Hf  Hf12  1  0.88171271  0.13117353  0.50000000  1
  Hf  Hf13  1  0.75766283  0.75188742  0.00000000  1
  Hf  Hf14  1  0.36559831  0.62466110  0.50000000  1
  Hf  Hf15  1  0.62064359  0.36710519  0.50000000  1
