# generated using pymatgen
data_Hf5Ti3C8
_symmetry_space_group_name_H-M   'P 1'
_cell_length_a   5.56523463
_cell_length_b   7.18701664
_cell_length_c   10.14922287
_cell_angle_alpha   106.43370793
_cell_angle_beta   89.97262412
_cell_angle_gamma   104.99145775
_symmetry_Int_Tables_number   1
_chemical_formula_structural   Hf5Ti3C8
_chemical_formula_sum   'Hf10 Ti6 C16'
_cell_volume   374.94735814
_cell_formula_units_Z   2
loop_
 _symmetry_equiv_pos_site_id
 _symmetry_equiv_pos_as_xyz
  1  'x, y, z'
loop_
 _atom_site_type_symbol
 _atom_site_label
 _atom_site_symmetry_multiplicity
 _atom_site_fract_x
 _atom_site_fract_y
 _atom_site_fract_z
 _atom_site_occupancy
  C  C0  1  0.12200041  0.37399515  0.38060919  1
  C  C1  1  0.30168206  0.42711415  0.68623185  1
  C  C2  1  0.49333543  0.49672148  0.99661672  1
  C  C3  1  0.24695614  0.75621078  0.25632274  1
  C  C4  1  0.69434963  0.56647282  0.31721907  1
  C  C5  1  0.43561173  0.81886808  0.56364927  1
  C  C6  1  0.18210005  0.06580510  0.80547209  1
  C  C7  1  0.87818855  0.62548532  0.62068710  1
  C  C8  1  0.62786981  0.87469279  0.86957294  1
  C  C9  1  0.37268308  0.12500136  0.12848579  1
  C  C10  1  0.06287186  0.68153057  0.93467308  1
  C  C11  1  0.82007511  0.94086692  0.19117493  1
  C  C12  1  0.55883403  0.18729750  0.44273390  1
  C  C13  1  0.00799336  0.00349620  0.50362420  1
  C  C14  1  0.75510171  0.24356013  0.74339663  1
  C  C15  1  0.93977212  0.31280381  0.05951082  1
  Hf  Hf16  1  0.49837172  0.49958558  0.50187758  1
  Hf  Hf17  1  0.68688403  0.55735723  0.80819995  1
  Hf  Hf18  1  0.87679876  0.62579180  0.12604559  1
  Hf  Hf19  1  0.62763478  0.87955110  0.37972942  1
  Hf  Hf20  1  0.56254846  0.18670308  0.93315223  1
  Hf  Hf21  1  0.24783695  0.74895516  0.74646867  1
  Hf  Hf22  1  0.00104448  0.00056363  0.99794700  1
  Hf  Hf23  1  0.75139564  0.25116420  0.25395364  1
  Hf  Hf24  1  0.43676834  0.81231846  0.06289945  1
  Hf  Hf25  1  0.31080296  0.43841170  0.19001005  1
  Ti  Ti26  1  0.06313430  0.69195011  0.44078213  1
  Ti  Ti27  1  0.81610289  0.94129496  0.68519948  1
  Ti  Ti28  1  0.18731323  0.06349734  0.31740726  1
  Ti  Ti29  1  0.93901146  0.30934055  0.56344715  1
  Ti  Ti30  1  0.37124357  0.12305418  0.62295850  1
  Ti  Ti31  1  0.12368336  0.37053875  0.86994159  1
