# generated using pymatgen
data_Zr3TiC4
_symmetry_space_group_name_H-M   'P 1'
_cell_length_a   7.32505283
_cell_length_b   7.32147328
_cell_length_c   8.65605901
_cell_angle_alpha   75.27551725
_cell_angle_beta   64.93890911
_cell_angle_gamma   72.51912021
_symmetry_Int_Tables_number   1
_chemical_formula_structural   Zr3TiC4
_chemical_formula_sum   'Zr12 Ti4 C16'
_cell_volume   396.74944095
_cell_formula_units_Z   4
loop_
 _symmetry_equiv_pos_site_id
 _symmetry_equiv_pos_as_xyz
  1  'x, y, z'
loop_
 _atom_site_type_symbol
 _atom_site_label
 _atom_site_symmetry_multiplicity
 _atom_site_fract_x
 _atom_site_fract_y
 _atom_site_fract_z
 _atom_site_occupancy
  C  C0  1  0.83199382  0.41172895  0.47994725  1
  C  C1  1  0.15240463  0.59026370  0.53989672  1
  C  C2  1  0.28125000  0.46875000  0.15625000  1
  C  C3  1  0.47795519  0.77236643  0.59090319  1
  C  C4  1  0.78125000  0.96875000  0.65625000  1
  C  C5  1  0.08454481  0.16513357  0.72159681  1
  C  C6  1  0.59196838  0.65297353  0.22502800  1
  C  C7  1  0.90341582  0.84045332  0.28900390  1
  C  C8  1  0.21801618  0.03200845  0.34490781  1
  C  C9  1  0.41009537  0.34723630  0.77260328  1
  C  C10  1  0.73050618  0.52577105  0.83255275  1
  C  C11  1  0.03276187  0.71118400  0.90358482  1
  C  C12  1  0.34448382  0.90549155  0.96759219  1
  C  C13  1  0.52973813  0.22631600  0.40891518  1
  C  C14  1  0.65908418  0.09704668  0.02349610  1
  C  C15  1  0.97053162  0.28452647  0.08747200  1
  Ti  Ti16  1  0.06205589  0.43899290  0.80852057  1
  Ti  Ti17  1  0.50044411  0.49850710  0.50397943  1
  Ti  Ti18  1  0.81138236  0.68351828  0.56456840  1
  Ti  Ti19  1  0.75111764  0.25398172  0.74793160  1
  Zr  Zr20  1  0.37970750  0.62166966  0.86993498  1
  Zr  Zr21  1  0.69028883  0.81055093  0.93399169  1
  Zr  Zr22  1  0.99946446  0.00134814  0.99846871  1
  Zr  Zr23  1  0.31391160  0.18967364  0.05821930  1
  Zr  Zr24  1  0.12406279  0.87278817  0.62605912  1
  Zr  Zr25  1  0.43843721  0.06471183  0.68644088  1
  Zr  Zr26  1  0.62741514  0.37571103  0.12228266  1
  Zr  Zr27  1  0.93508486  0.56178897  0.19021734  1
  Zr  Zr28  1  0.24858840  0.74782636  0.25428070  1
  Zr  Zr29  1  0.56303554  0.93615186  0.31403129  1
  Zr  Zr30  1  0.87221117  0.12694907  0.37850831  1
  Zr  Zr31  1  0.18279250  0.31583034  0.44256502  1
