# generated using pymatgen
data_HfZrTaTiVC5
_symmetry_space_group_name_H-M   'P 1'
_cell_length_a   7.08269060
_cell_length_b   7.08247966
_cell_length_c   9.50416349
_cell_angle_alpha   98.51420548
_cell_angle_beta   107.36429050
_cell_angle_gamma   90.00742610
_symmetry_Int_Tables_number   1
_chemical_formula_structural   HfZrTaTiVC5
_chemical_formula_sum   'Hf4 Zr4 Ta4 Ti4 V4 C20'
_cell_volume   449.51892481
_cell_formula_units_Z   4
loop_
 _symmetry_equiv_pos_site_id
 _symmetry_equiv_pos_as_xyz
  1  'x, y, z'
loop_
 _atom_site_type_symbol
 _atom_site_label
 _atom_site_symmetry_multiplicity
 _atom_site_fract_x
 _atom_site_fract_y
 _atom_site_fract_z
 _atom_site_occupancy
  C  C0  1  0.89972828  0.44161475  0.24539887  1
  C  C1  1  0.29983854  0.63568672  0.24339344  1
  C  C2  1  0.09274744  0.06262016  0.24620858  1
  C  C3  1  0.10241015  0.80021250  0.50424882  1
  C  C4  1  0.89942559  0.20554296  0.49629524  1
  C  C5  1  0.10694148  0.55635259  0.74975719  1
  C  C6  1  0.91667040  0.95224010  0.75936330  1
  C  C7  1  0.90934718  0.69640458  0.00245598  1
  C  C8  1  0.70254157  0.85143184  0.25071031  1
  C  C9  1  0.49771143  0.25849988  0.24795994  1
  C  C10  1  0.70097477  0.59035821  0.49242105  1
  C  C11  1  0.49462935  0.00724255  0.49888265  1
  C  C12  1  0.29905838  0.39406943  0.49706657  1
  C  C13  1  0.48825560  0.74398305  0.74962923  1
  C  C14  1  0.29779361  0.14671995  0.75168618  1
  C  C15  1  0.50168319  0.49018720  0.00040576  1
  C  C16  1  0.28550533  0.90303396  0.99002965  1
  C  C17  1  0.10018897  0.29644363  0.00921655  1
  C  C18  1  0.69579794  0.35066845  0.75256339  1
  C  C19  1  0.70982728  0.11565096  0.00915242  1
  Hf  Hf20  1  0.80092328  0.90272693  0.50063530  1
  Hf  Hf21  1  0.99983884  0.74972595  0.24831660  1
  Hf  Hf22  1  0.00117679  0.25290511  0.75519979  1
  Hf  Hf23  1  0.39889258  0.69346831  0.49547530  1
  Ta  Ta24  1  0.19911640  0.59365067  0.00123199  1
  Ta  Ta25  1  0.19856274  0.10095404  0.49618914  1
  Ta  Ta26  1  0.99823310  0.49815391  0.49450172  1
  Ta  Ta27  1  0.40199530  0.44570564  0.75124337  1
  Ti  Ti28  1  0.79812247  0.15481142  0.24834645  1
  Ti  Ti29  1  0.60028700  0.54242528  0.24538428  1
  Ti  Ti30  1  0.59642048  0.30033114  0.49389203  1
  Ti  Ti31  1  0.40065692  0.20189667  0.00305864  1
  V  V32  1  0.00598879  0.01580171  0.00568916  1
  V  V33  1  0.80268580  0.39196974  0.01102532  1
  V  V34  1  0.19412406  0.34662115  0.24382599  1
  V  V35  1  0.19916278  0.85556509  0.75755996  1
  Zr  Zr36  1  0.60192710  0.80114243  0.00120890  1
  Zr  Zr37  1  0.60252729  0.05024032  0.75450140  1
  Zr  Zr38  1  0.39578142  0.95331633  0.24381645  1
  Zr  Zr39  1  0.80250039  0.64962472  0.75205311  1
