# generated using pymatgen
data_Ti2AlC
_symmetry_space_group_name_H-M   'P 1'
_cell_length_a   6.13173947
_cell_length_b   6.13173947
_cell_length_c   27.47300051
_cell_angle_alpha   90.00000000
_cell_angle_beta   90.00000000
_cell_angle_gamma   120.00000004
_symmetry_Int_Tables_number   1
_chemical_formula_structural   Ti2AlC
_chemical_formula_sum   'Ti32 Al16 C16'
_cell_volume   894.54895716
_cell_formula_units_Z   16
loop_
 _symmetry_equiv_pos_site_id
 _symmetry_equiv_pos_as_xyz
  1  'x, y, z'
loop_
 _atom_site_type_symbol
 _atom_site_label
 _atom_site_symmetry_multiplicity
 _atom_site_fract_x
 _atom_site_fract_y
 _atom_site_fract_z
 _atom_site_occupancy
  C  C0  1  0.00000000  0.00000000  0.00000000  1
  C  C1  1  0.00000000  0.00000000  0.25000000  1
  C  C2  1  0.00000000  0.00000000  0.50000000  1
  C  C3  1  0.00000000  0.00000000  0.75000000  1
  C  C4  1  0.00000000  0.50000000  0.00000000  1
  C  C5  1  0.00000000  0.50000000  0.25000000  1
  C  C6  1  0.00000000  0.50000000  0.50000000  1
  C  C7  1  0.00000000  0.50000000  0.75000000  1
  C  C8  1  0.50000000  0.00000000  0.00000000  1
  C  C9  1  0.50000000  0.00000000  0.25000000  1
  C  C10  1  0.50000000  0.00000000  0.50000000  1
  C  C11  1  0.50000000  0.00000000  0.75000000  1
  C  C12  1  0.50000000  0.50000000  0.00000000  1
  C  C13  1  0.50000000  0.50000000  0.25000000  1
  C  C14  1  0.50000000  0.50000000  0.50000000  1
  C  C15  1  0.50000000  0.50000000  0.75000000  1
  Al  Al16  1  0.16666667  0.33333333  0.37500000  1
  Al  Al17  1  0.33333333  0.16666667  0.12500000  1
  Al  Al18  1  0.16666667  0.33333333  0.87500000  1
  Al  Al19  1  0.33333333  0.16666667  0.62500000  1
  Al  Al20  1  0.16666667  0.83333333  0.37500000  1
  Al  Al21  1  0.33333333  0.66666667  0.12500000  1
  Al  Al22  1  0.16666667  0.83333333  0.87500000  1
  Al  Al23  1  0.33333333  0.66666667  0.62500000  1
  Al  Al24  1  0.66666667  0.33333333  0.37500000  1
  Al  Al25  1  0.83333333  0.16666667  0.12500000  1
  Al  Al26  1  0.66666667  0.33333333  0.87500000  1
  Al  Al27  1  0.83333333  0.16666667  0.62500000  1
  Al  Al28  1  0.66666667  0.83333333  0.37500000  1
  Al  Al29  1  0.83333333  0.66666667  0.12500000  1
  Al  Al30  1  0.66666667  0.83333333  0.87500000  1
  Al  Al31  1  0.83333333  0.66666667  0.62500000  1
  Ti  Ti32  1  0.16666667  0.33333333  0.20827262  1
  Ti  Ti33  1  0.33333333  0.16666667  0.45827262  1
  Ti  Ti34  1  0.33333333  0.16666667  0.29172738  1
  Ti  Ti35  1  0.16666667  0.33333333  0.04172738  1
  Ti  Ti36  1  0.16666667  0.33333333  0.70827262  1
  Ti  Ti37  1  0.33333333  0.16666667  0.95827262  1
  Ti  Ti38  1  0.33333333  0.16666667  0.79172738  1
  Ti  Ti39  1  0.16666667  0.33333333  0.54172738  1
  Ti  Ti40  1  0.16666667  0.83333333  0.20827262  1
  Ti  Ti41  1  0.33333333  0.66666667  0.45827262  1
  Ti  Ti42  1  0.33333333  0.66666667  0.29172738  1
  Ti  Ti43  1  0.16666667  0.83333333  0.04172738  1
  Ti  Ti44  1  0.16666667  0.83333333  0.70827262  1
  Ti  Ti45  1  0.33333333  0.66666667  0.95827262  1
  Ti  Ti46  1  0.33333333  0.66666667  0.79172738  1
  Ti  Ti47  1  0.16666667  0.83333333  0.54172738  1
  Ti  Ti48  1  0.66666667  0.33333333  0.20827262  1
  Ti  Ti49  1  0.83333333  0.16666667  0.45827262  1
  Ti  Ti50  1  0.83333333  0.16666667  0.29172738  1
  Ti  Ti51  1  0.66666667  0.33333333  0.04172738  1
  Ti  Ti52  1  0.66666667  0.33333333  0.70827262  1
  Ti  Ti53  1  0.83333333  0.16666667  0.95827262  1
  Ti  Ti54  1  0.83333333  0.16666667  0.79172738  1
  Ti  Ti55  1  0.66666667  0.33333333  0.54172738  1
  Ti  Ti56  1  0.66666667  0.83333333  0.20827262  1
  Ti  Ti57  1  0.83333333  0.66666667  0.45827262  1
  Ti  Ti58  1  0.83333333  0.66666667  0.29172738  1
  Ti  Ti59  1  0.66666667  0.83333333  0.04172738  1
  Ti  Ti60  1  0.66666667  0.83333333  0.70827262  1
  Ti  Ti61  1  0.83333333  0.66666667  0.95827262  1
  Ti  Ti62  1  0.83333333  0.66666667  0.79172738  1
  Ti  Ti63  1  0.66666667  0.83333333  0.54172738  1
