# generated using pymatgen
data_AlV2C
_symmetry_space_group_name_H-M   'P 1'
_cell_length_a   5.81512831
_cell_length_b   5.81512831
_cell_length_c   26.26161401
_cell_angle_alpha   90.00000000
_cell_angle_beta   90.00000000
_cell_angle_gamma   120.00000006
_symmetry_Int_Tables_number   1
_chemical_formula_structural   AlV2C
_chemical_formula_sum   'Al16 V32 C16'
_cell_volume   769.07846165
_cell_formula_units_Z   16
loop_
 _symmetry_equiv_pos_site_id
 _symmetry_equiv_pos_as_xyz
  1  'x, y, z'
loop_
 _atom_site_type_symbol
 _atom_site_label
 _atom_site_symmetry_multiplicity
 _atom_site_fract_x
 _atom_site_fract_y
 _atom_site_fract_z
 _atom_site_occupancy
  C  C0  1  0.00000000  0.00000000  0.00000000  1
  C  C1  1  0.00000000  0.00000000  0.25000000  1
  C  C2  1  0.00000000  0.00000000  0.50000000  1
  C  C3  1  0.00000000  0.00000000  0.75000000  1
  C  C4  1  0.00000000  0.50000000  0.00000000  1
  C  C5  1  0.00000000  0.50000000  0.25000000  1
  C  C6  1  0.00000000  0.50000000  0.50000000  1
  C  C7  1  0.00000000  0.50000000  0.75000000  1
  C  C8  1  0.50000000  0.00000000  0.00000000  1
  C  C9  1  0.50000000  0.00000000  0.25000000  1
  C  C10  1  0.50000000  0.00000000  0.50000000  1
  C  C11  1  0.50000000  0.00000000  0.75000000  1
  C  C12  1  0.50000000  0.50000000  0.00000000  1
  C  C13  1  0.50000000  0.50000000  0.25000000  1
  C  C14  1  0.50000000  0.50000000  0.50000000  1
  C  C15  1  0.50000000  0.50000000  0.75000000  1
  Al  Al16  1  0.16666667  0.33333333  0.37500000  1
  Al  Al17  1  0.33333333  0.16666667  0.12500000  1
  Al  Al18  1  0.16666667  0.33333333  0.87500000  1
  Al  Al19  1  0.33333333  0.16666667  0.62500000  1
  Al  Al20  1  0.16666667  0.83333333  0.37500000  1
  Al  Al21  1  0.33333333  0.66666667  0.12500000  1
  Al  Al22  1  0.16666667  0.83333333  0.87500000  1
  Al  Al23  1  0.33333333  0.66666667  0.62500000  1
  Al  Al24  1  0.66666667  0.33333333  0.37500000  1
  Al  Al25  1  0.83333333  0.16666667  0.12500000  1
  Al  Al26  1  0.66666667  0.33333333  0.87500000  1
  Al  Al27  1  0.83333333  0.16666667  0.62500000  1
  Al  Al28  1  0.66666667  0.83333333  0.37500000  1
  Al  Al29  1  0.83333333  0.66666667  0.12500000  1
  Al  Al30  1  0.66666667  0.83333333  0.87500000  1
  Al  Al31  1  0.83333333  0.66666667  0.62500000  1
  V  V32  1  0.16666667  0.33333333  0.20734926  1
  V  V33  1  0.33333333  0.16666667  0.45734926  1
  V  V34  1  0.33333333  0.16666667  0.29265074  1
  V  V35  1  0.16666667  0.33333333  0.04265074  1
  V  V36  1  0.16666667  0.33333333  0.70734926  1
  V  V37  1  0.33333333  0.16666667  0.95734926  1
  V  V38  1  0.33333333  0.16666667  0.79265074  1
  V  V39  1  0.16666667  0.33333333  0.54265074  1
  V  V40  1  0.16666667  0.83333333  0.20734926  1
  V  V41  1  0.33333333  0.66666667  0.45734926  1
  V  V42  1  0.33333333  0.66666667  0.29265074  1
  V  V43  1  0.16666667  0.83333333  0.04265074  1
  V  V44  1  0.16666667  0.83333333  0.70734926  1
  V  V45  1  0.33333333  0.66666667  0.95734926  1
  V  V46  1  0.33333333  0.66666667  0.79265074  1
  V  V47  1  0.16666667  0.83333333  0.54265074  1
  V  V48  1  0.66666667  0.33333333  0.20734926  1
  V  V49  1  0.83333333  0.16666667  0.45734926  1
  V  V50  1  0.83333333  0.16666667  0.29265074  1
  V  V51  1  0.66666667  0.33333333  0.04265074  1
  V  V52  1  0.66666667  0.33333333  0.70734926  1
  V  V53  1  0.83333333  0.16666667  0.95734926  1
  V  V54  1  0.83333333  0.16666667  0.79265074  1
  V  V55  1  0.66666667  0.33333333  0.54265074  1
  V  V56  1  0.66666667  0.83333333  0.20734926  1
  V  V57  1  0.83333333  0.66666667  0.45734926  1
  V  V58  1  0.83333333  0.66666667  0.29265074  1
  V  V59  1  0.66666667  0.83333333  0.04265074  1
  V  V60  1  0.66666667  0.83333333  0.70734926  1
  V  V61  1  0.83333333  0.66666667  0.95734926  1
  V  V62  1  0.83333333  0.66666667  0.79265074  1
  V  V63  1  0.66666667  0.83333333  0.54265074  1
