# generated using pymatgen
data_Mn2AlC
_symmetry_space_group_name_H-M   'P 1'
_cell_length_a   5.72197592
_cell_length_b   5.72197591
_cell_length_c   24.84319004
_cell_angle_alpha   90.00000000
_cell_angle_beta   90.00000000
_cell_angle_gamma   120.00000003
_symmetry_Int_Tables_number   1
_chemical_formula_structural   Mn2AlC
_chemical_formula_sum   'Mn32 Al16 C16'
_cell_volume   704.41735012
_cell_formula_units_Z   16
loop_
 _symmetry_equiv_pos_site_id
 _symmetry_equiv_pos_as_xyz
  1  'x, y, z'
loop_
 _atom_site_type_symbol
 _atom_site_label
 _atom_site_symmetry_multiplicity
 _atom_site_fract_x
 _atom_site_fract_y
 _atom_site_fract_z
 _atom_site_occupancy
  C  C0  1  0.00000000  0.00000000  0.00000000  1
  C  C1  1  0.00000000  0.00000000  0.25000000  1
  C  C2  1  0.00000000  0.00000000  0.50000000  1
  C  C3  1  0.00000000  0.00000000  0.75000000  1
  C  C4  1  0.00000000  0.50000000  0.00000000  1
  C  C5  1  0.00000000  0.50000000  0.25000000  1
  C  C6  1  0.00000000  0.50000000  0.50000000  1
  C  C7  1  0.00000000  0.50000000  0.75000000  1
  C  C8  1  0.50000000  0.00000000  0.00000000  1
  C  C9  1  0.50000000  0.00000000  0.25000000  1
  C  C10  1  0.50000000  0.00000000  0.50000000  1
  C  C11  1  0.50000000  0.00000000  0.75000000  1
  C  C12  1  0.50000000  0.50000000  0.00000000  1
  C  C13  1  0.50000000  0.50000000  0.25000000  1
  C  C14  1  0.50000000  0.50000000  0.50000000  1
  C  C15  1  0.50000000  0.50000000  0.75000000  1
  Al  Al16  1  0.16666667  0.33333333  0.37500000  1
  Al  Al17  1  0.33333333  0.16666667  0.12500000  1
  Al  Al18  1  0.16666667  0.33333333  0.87500000  1
  Al  Al19  1  0.33333333  0.16666667  0.62500000  1
  Al  Al20  1  0.16666667  0.83333333  0.37500000  1
  Al  Al21  1  0.33333333  0.66666667  0.12500000  1
  Al  Al22  1  0.16666667  0.83333333  0.87500000  1
  Al  Al23  1  0.33333333  0.66666667  0.62500000  1
  Al  Al24  1  0.66666667  0.33333333  0.37500000  1
  Al  Al25  1  0.83333333  0.16666667  0.12500000  1
  Al  Al26  1  0.66666667  0.33333333  0.87500000  1
  Al  Al27  1  0.83333333  0.16666667  0.62500000  1
  Al  Al28  1  0.66666667  0.83333333  0.37500000  1
  Al  Al29  1  0.83333333  0.66666667  0.12500000  1
  Al  Al30  1  0.66666667  0.83333333  0.87500000  1
  Al  Al31  1  0.83333333  0.66666667  0.62500000  1
  Mn  Mn32  1  0.16666667  0.33333333  0.20746691  1
  Mn  Mn33  1  0.33333333  0.16666667  0.45746691  1
  Mn  Mn34  1  0.33333333  0.16666667  0.29253309  1
  Mn  Mn35  1  0.16666667  0.33333333  0.04253309  1
  Mn  Mn36  1  0.16666667  0.33333333  0.70746691  1
  Mn  Mn37  1  0.33333333  0.16666667  0.95746691  1
  Mn  Mn38  1  0.33333333  0.16666667  0.79253309  1
  Mn  Mn39  1  0.16666667  0.33333333  0.54253309  1
  Mn  Mn40  1  0.16666667  0.83333333  0.20746691  1
  Mn  Mn41  1  0.33333333  0.66666667  0.45746691  1
  Mn  Mn42  1  0.33333333  0.66666667  0.29253309  1
  Mn  Mn43  1  0.16666667  0.83333333  0.04253309  1
  Mn  Mn44  1  0.16666667  0.83333333  0.70746691  1
  Mn  Mn45  1  0.33333333  0.66666667  0.95746691  1
  Mn  Mn46  1  0.33333333  0.66666667  0.79253309  1
  Mn  Mn47  1  0.16666667  0.83333333  0.54253309  1
  Mn  Mn48  1  0.66666667  0.33333333  0.20746691  1
  Mn  Mn49  1  0.83333333  0.16666667  0.45746691  1
  Mn  Mn50  1  0.83333333  0.16666667  0.29253309  1
  Mn  Mn51  1  0.66666667  0.33333333  0.04253309  1
  Mn  Mn52  1  0.66666667  0.33333333  0.70746691  1
  Mn  Mn53  1  0.83333333  0.16666667  0.95746691  1
  Mn  Mn54  1  0.83333333  0.16666667  0.79253309  1
  Mn  Mn55  1  0.66666667  0.33333333  0.54253309  1
  Mn  Mn56  1  0.66666667  0.83333333  0.20746691  1
  Mn  Mn57  1  0.83333333  0.66666667  0.45746691  1
  Mn  Mn58  1  0.83333333  0.66666667  0.29253309  1
  Mn  Mn59  1  0.66666667  0.83333333  0.04253309  1
  Mn  Mn60  1  0.66666667  0.83333333  0.70746691  1
  Mn  Mn61  1  0.83333333  0.66666667  0.95746691  1
  Mn  Mn62  1  0.83333333  0.66666667  0.79253309  1
  Mn  Mn63  1  0.66666667  0.83333333  0.54253309  1
