# generated using pymatgen
data_AlFe2C
_symmetry_space_group_name_H-M   'P 1'
_cell_length_a   5.65057438
_cell_length_b   5.65057437
_cell_length_c   24.59549974
_cell_angle_alpha   90.00000000
_cell_angle_beta   90.00000000
_cell_angle_gamma   120.00000005
_symmetry_Int_Tables_number   1
_chemical_formula_structural   AlFe2C
_chemical_formula_sum   'Al16 Fe32 C16'
_cell_volume   680.09796302
_cell_formula_units_Z   16
loop_
 _symmetry_equiv_pos_site_id
 _symmetry_equiv_pos_as_xyz
  1  'x, y, z'
loop_
 _atom_site_type_symbol
 _atom_site_label
 _atom_site_symmetry_multiplicity
 _atom_site_fract_x
 _atom_site_fract_y
 _atom_site_fract_z
 _atom_site_occupancy
  C  C0  1  0.00000000  0.00000000  0.00000000  1
  C  C1  1  0.00000000  0.00000000  0.25000000  1
  C  C2  1  0.00000000  0.00000000  0.50000000  1
  C  C3  1  0.00000000  0.00000000  0.75000000  1
  C  C4  1  0.00000000  0.50000000  0.00000000  1
  C  C5  1  0.00000000  0.50000000  0.25000000  1
  C  C6  1  0.00000000  0.50000000  0.50000000  1
  C  C7  1  0.00000000  0.50000000  0.75000000  1
  C  C8  1  0.50000000  0.00000000  0.00000000  1
  C  C9  1  0.50000000  0.00000000  0.25000000  1
  C  C10  1  0.50000000  0.00000000  0.50000000  1
  C  C11  1  0.50000000  0.00000000  0.75000000  1
  C  C12  1  0.50000000  0.50000000  0.00000000  1
  C  C13  1  0.50000000  0.50000000  0.25000000  1
  C  C14  1  0.50000000  0.50000000  0.50000000  1
  C  C15  1  0.50000000  0.50000000  0.75000000  1
  Al  Al16  1  0.16666667  0.33333333  0.37500000  1
  Al  Al17  1  0.33333333  0.16666667  0.12500000  1
  Al  Al18  1  0.16666667  0.33333333  0.87500000  1
  Al  Al19  1  0.33333333  0.16666667  0.62500000  1
  Al  Al20  1  0.16666667  0.83333333  0.37500000  1
  Al  Al21  1  0.33333333  0.66666667  0.12500000  1
  Al  Al22  1  0.16666667  0.83333333  0.87500000  1
  Al  Al23  1  0.33333333  0.66666667  0.62500000  1
  Al  Al24  1  0.66666667  0.33333333  0.37500000  1
  Al  Al25  1  0.83333333  0.16666667  0.12500000  1
  Al  Al26  1  0.66666667  0.33333333  0.87500000  1
  Al  Al27  1  0.83333333  0.16666667  0.62500000  1
  Al  Al28  1  0.66666667  0.83333333  0.37500000  1
  Al  Al29  1  0.83333333  0.66666667  0.12500000  1
  Al  Al30  1  0.66666667  0.83333333  0.87500000  1
  Al  Al31  1  0.83333333  0.66666667  0.62500000  1
  Fe  Fe32  1  0.16666667  0.33333333  0.20822927  1
  Fe  Fe33  1  0.33333333  0.16666667  0.45822927  1
  Fe  Fe34  1  0.33333333  0.16666667  0.29177073  1
  Fe  Fe35  1  0.16666667  0.33333333  0.04177073  1
  Fe  Fe36  1  0.16666667  0.33333333  0.70822927  1
  Fe  Fe37  1  0.33333333  0.16666667  0.95822927  1
  Fe  Fe38  1  0.33333333  0.16666667  0.79177073  1
  Fe  Fe39  1  0.16666667  0.33333333  0.54177073  1
  Fe  Fe40  1  0.16666667  0.83333333  0.20822927  1
  Fe  Fe41  1  0.33333333  0.66666667  0.45822927  1
  Fe  Fe42  1  0.33333333  0.66666667  0.29177073  1
  Fe  Fe43  1  0.16666667  0.83333333  0.04177073  1
  Fe  Fe44  1  0.16666667  0.83333333  0.70822927  1
  Fe  Fe45  1  0.33333333  0.66666667  0.95822927  1
  Fe  Fe46  1  0.33333333  0.66666667  0.79177073  1
  Fe  Fe47  1  0.16666667  0.83333333  0.54177073  1
  Fe  Fe48  1  0.66666667  0.33333333  0.20822927  1
  Fe  Fe49  1  0.83333333  0.16666667  0.45822927  1
  Fe  Fe50  1  0.83333333  0.16666667  0.29177073  1
  Fe  Fe51  1  0.66666667  0.33333333  0.04177073  1
  Fe  Fe52  1  0.66666667  0.33333333  0.70822927  1
  Fe  Fe53  1  0.83333333  0.16666667  0.95822927  1
  Fe  Fe54  1  0.83333333  0.16666667  0.79177073  1
  Fe  Fe55  1  0.66666667  0.33333333  0.54177073  1
  Fe  Fe56  1  0.66666667  0.83333333  0.20822927  1
  Fe  Fe57  1  0.83333333  0.66666667  0.45822927  1
  Fe  Fe58  1  0.83333333  0.66666667  0.29177073  1
  Fe  Fe59  1  0.66666667  0.83333333  0.04177073  1
  Fe  Fe60  1  0.66666667  0.83333333  0.70822927  1
  Fe  Fe61  1  0.83333333  0.66666667  0.95822927  1
  Fe  Fe62  1  0.83333333  0.66666667  0.79177073  1
  Fe  Fe63  1  0.66666667  0.83333333  0.54177073  1
