# generated using pymatgen
data_YZrTaTiWC5
_symmetry_space_group_name_H-M   'P 1'
_cell_length_a   5.57300463
_cell_length_b   5.59195498
_cell_length_c   8.60358711
_cell_angle_alpha   109.22974780
_cell_angle_beta   109.01480811
_cell_angle_gamma   80.37598787
_symmetry_Int_Tables_number   1
_chemical_formula_structural   YZrTaTiWC5
_chemical_formula_sum   'Y2 Zr2 Ta2 Ti2 W2 C10'
_cell_volume   238.80944927
_cell_formula_units_Z   2
loop_
 _symmetry_equiv_pos_site_id
 _symmetry_equiv_pos_as_xyz
  1  'x, y, z'
loop_
 _atom_site_type_symbol
 _atom_site_label
 _atom_site_symmetry_multiplicity
 _atom_site_fract_x
 _atom_site_fract_y
 _atom_site_fract_z
 _atom_site_occupancy
  C  C0  1  0.75404037  0.13350671  0.56821020  1
  C  C1  1  0.23921290  0.83677858  0.46755166  1
  C  C2  1  0.75624778  0.55299912  0.34450054  1
  C  C3  1  0.24195673  0.26587776  0.23071801  1
  C  C4  1  0.74641620  0.94357060  0.12938956  1
  C  C5  1  0.24637337  0.65018041  0.04189454  1
  C  C6  1  0.74577772  0.35155247  0.95085788  1
  C  C7  1  0.25858607  0.04038789  0.84916429  1
  C  C8  1  0.74702935  0.75973611  0.75571928  1
  C  C9  1  0.26410739  0.46021530  0.66490171  1
  Y  Y10  1  0.00346026  0.19587767  0.39966761  1
  Y  Y11  1  0.49445468  0.90367310  0.29940548  1
  Ta  Ta12  1  0.50112077  0.30827153  0.09760920  1
  Ta  Ta13  1  0.99887356  0.00155895  0.99505276  1
  Ti  Ti14  1  0.49932314  0.09678753  0.70705015  1
  Ti  Ti15  1  0.99403060  0.59632500  0.19213444  1
  W  W16  1  0.99571230  0.80224773  0.60258017  1
  W  W17  1  0.50738426  0.70146154  0.89606740  1
  Zr  Zr18  1  0.50207899  0.50171743  0.50503280  1
  Zr  Zr19  1  0.00381358  0.39727455  0.80249232  1
