# generated using pymatgen
data_ZrTaTiVWC5
_symmetry_space_group_name_H-M   'P 1'
_cell_length_a   5.41581488
_cell_length_b   5.41700186
_cell_length_c   8.25818854
_cell_angle_alpha   108.95691832
_cell_angle_beta   109.12708146
_cell_angle_gamma   80.38863698
_symmetry_Int_Tables_number   1
_chemical_formula_structural   ZrTaTiVWC5
_chemical_formula_sum   'Zr2 Ta2 Ti2 V2 W2 C10'
_cell_volume   215.98755693
_cell_formula_units_Z   2
loop_
 _symmetry_equiv_pos_site_id
 _symmetry_equiv_pos_as_xyz
  1  'x, y, z'
loop_
 _atom_site_type_symbol
 _atom_site_label
 _atom_site_symmetry_multiplicity
 _atom_site_fract_x
 _atom_site_fract_y
 _atom_site_fract_z
 _atom_site_occupancy
  C  C0  1  0.74678106  0.13420871  0.54098844  1
  C  C1  1  0.24132983  0.86163324  0.44640205  1
  C  C2  1  0.75884274  0.55441213  0.34681174  1
  C  C3  1  0.24459605  0.24149447  0.24980829  1
  C  C4  1  0.75271265  0.94788958  0.15724503  1
  C  C5  1  0.25884888  0.65778757  0.05726553  1
  C  C6  1  0.74541207  0.34924173  0.95348360  1
  C  C7  1  0.25849963  0.04042707  0.84984838  1
  C  C8  1  0.74852772  0.76437376  0.75170605  1
  C  C9  1  0.25000242  0.45318206  0.65080100  1
  V  V10  1  0.99769517  0.17626757  0.38668265  1
  V  V11  1  0.48755883  0.90649799  0.30534407  1
  Ta  Ta12  1  0.50688179  0.30812800  0.10807181  1
  Ta  Ta13  1  0.00601075  0.00238047  0.00324840  1
  Ti  Ti14  1  0.49252499  0.10099686  0.69810569  1
  Ti  Ti15  1  0.00471088  0.60125760  0.20169855  1
  W  W16  1  0.98670921  0.79625601  0.58377715  1
  W  W17  1  0.51551152  0.70840533  0.91337985  1
  Zr  Zr18  1  0.49639919  0.49877691  0.49788910  1
  Zr  Zr19  1  0.00044461  0.39638295  0.79744260  1
