# generated using pymatgen
data_ZrTaTiTcWC5
_symmetry_space_group_name_H-M   'P 1'
_cell_length_a   5.43161468
_cell_length_b   5.47474916
_cell_length_c   8.31950301
_cell_angle_alpha   109.38899715
_cell_angle_beta   109.17782776
_cell_angle_gamma   80.06810165
_symmetry_Int_Tables_number   1
_chemical_formula_structural   ZrTaTiTcWC5
_chemical_formula_sum   'Zr2 Ta2 Ti2 Tc2 W2 C10'
_cell_volume   219.85411018
_cell_formula_units_Z   2
loop_
 _symmetry_equiv_pos_site_id
 _symmetry_equiv_pos_as_xyz
  1  'x, y, z'
loop_
 _atom_site_type_symbol
 _atom_site_label
 _atom_site_symmetry_multiplicity
 _atom_site_fract_x
 _atom_site_fract_y
 _atom_site_fract_z
 _atom_site_occupancy
  C  C0  1  0.75759039  0.13007514  0.53975932  1
  C  C1  1  0.23804779  0.85394998  0.45308692  1
  C  C2  1  0.75874185  0.55519889  0.34615790  1
  C  C3  1  0.24346828  0.25353317  0.24519659  1
  C  C4  1  0.74545698  0.94946910  0.15414765  1
  C  C5  1  0.25186339  0.65535615  0.05135061  1
  C  C6  1  0.74547752  0.34909471  0.95488682  1
  C  C7  1  0.25685844  0.04129242  0.85200950  1
  C  C8  1  0.74908085  0.76197141  0.74887134  1
  C  C9  1  0.25904614  0.44786016  0.65278759  1
  Tc  Tc10  1  0.05187961  0.19849174  0.41481698  1
  Tc  Tc11  1  0.46471580  0.90955861  0.30196192  1
  Ta  Ta12  1  0.50957922  0.31137090  0.10568078  1
  Ta  Ta13  1  0.00766391  0.00046521  0.00671181  1
  Ti  Ti14  1  0.49241378  0.09030540  0.70055097  1
  Ti  Ti15  1  0.99723639  0.62076747  0.20250018  1
  W  W16  1  0.98063485  0.79866910  0.59104948  1
  W  W17  1  0.48840770  0.68568769  0.88192004  1
  Zr  Zr18  1  0.50323989  0.49104408  0.49442449  1
  Zr  Zr19  1  0.99859721  0.39583868  0.80212909  1
