# generated using pymatgen
data_ZrTaTiRuWC5
_symmetry_space_group_name_H-M   'P 1'
_cell_length_a   5.49065498
_cell_length_b   5.43819236
_cell_length_c   8.27472416
_cell_angle_alpha   108.60808011
_cell_angle_beta   109.49830031
_cell_angle_gamma   80.45068431
_symmetry_Int_Tables_number   1
_chemical_formula_structural   ZrTaTiRuWC5
_chemical_formula_sum   'Zr2 Ta2 Ti2 Ru2 W2 C10'
_cell_volume   220.24354582
_cell_formula_units_Z   2
loop_
 _symmetry_equiv_pos_site_id
 _symmetry_equiv_pos_as_xyz
  1  'x, y, z'
loop_
 _atom_site_type_symbol
 _atom_site_label
 _atom_site_symmetry_multiplicity
 _atom_site_fract_x
 _atom_site_fract_y
 _atom_site_fract_z
 _atom_site_occupancy
  C  C0  1  0.74793444  0.13262209  0.54419938  1
  C  C1  1  0.24548915  0.85878213  0.44832969  1
  C  C2  1  0.76030138  0.55181700  0.34717066  1
  C  C3  1  0.24698362  0.24298218  0.24901521  1
  C  C4  1  0.75883840  0.95175526  0.15554832  1
  C  C5  1  0.24917760  0.64944692  0.05063089  1
  C  C6  1  0.74523112  0.35203810  0.95698611  1
  C  C7  1  0.25625987  0.04086557  0.85230848  1
  C  C8  1  0.74467279  0.76570504  0.74998252  1
  C  C9  1  0.25608291  0.45693232  0.65757641  1
  Ru  Ru10  1  0.03763029  0.20034682  0.42312135  1
  Ru  Ru11  1  0.50432860  0.89031727  0.27512516  1
  Ta  Ta12  1  0.51138830  0.30777287  0.10883899  1
  Ta  Ta13  1  0.00309339  0.00050184  0.00845727  1
  Ti  Ti14  1  0.48675576  0.09302097  0.70139150  1
  Ti  Ti15  1  0.99377835  0.61132209  0.20420248  1
  W  W16  1  0.97162101  0.80846181  0.58234831  1
  W  W17  1  0.48626858  0.68529867  0.88743849  1
  Zr  Zr18  1  0.49784268  0.50075737  0.49458370  1
  Zr  Zr19  1  0.99632178  0.39925367  0.80274508  1
