# generated using pymatgen
data_ZrTaTiRhWC5
_symmetry_space_group_name_H-M   'P 1'
_cell_length_a   5.48173436
_cell_length_b   5.44623287
_cell_length_c   8.33460642
_cell_angle_alpha   109.73883274
_cell_angle_beta   109.20276388
_cell_angle_gamma   80.12284301
_symmetry_Int_Tables_number   1
_chemical_formula_structural   ZrTaTiRhWC5
_chemical_formula_sum   'Zr2 Ta2 Ti2 Rh2 W2 C10'
_cell_volume   220.66407690
_cell_formula_units_Z   2
loop_
 _symmetry_equiv_pos_site_id
 _symmetry_equiv_pos_as_xyz
  1  'x, y, z'
loop_
 _atom_site_type_symbol
 _atom_site_label
 _atom_site_symmetry_multiplicity
 _atom_site_fract_x
 _atom_site_fract_y
 _atom_site_fract_z
 _atom_site_occupancy
  C  C0  1  0.75213126  0.12232589  0.54252417  1
  C  C1  1  0.23592445  0.85905107  0.45143982  1
  C  C2  1  0.75810592  0.55874476  0.34576694  1
  C  C3  1  0.24327562  0.25380969  0.24173381  1
  C  C4  1  0.74590281  0.94893977  0.14783700  1
  C  C5  1  0.25338024  0.65591109  0.05079005  1
  C  C6  1  0.74904879  0.35016081  0.95386510  1
  C  C7  1  0.25957656  0.04045557  0.84974871  1
  C  C8  1  0.74789273  0.75805949  0.74939079  1
  C  C9  1  0.25719642  0.45409811  0.65467168  1
  Rh  Rh10  1  0.00303840  0.20037182  0.41134819  1
  Rh  Rh11  1  0.48574143  0.89682281  0.30345688  1
  Ta  Ta12  1  0.51159530  0.31704907  0.10465001  1
  Ta  Ta13  1  0.01256748  0.00721613  0.00632836  1
  Ti  Ti14  1  0.49040430  0.09563651  0.69732192  1
  Ti  Ti15  1  0.99554793  0.62512235  0.20579451  1
  W  W16  1  0.98553438  0.77395767  0.59690237  1
  W  W17  1  0.51453429  0.70308812  0.89605292  1
  Zr  Zr18  1  0.49887711  0.48921320  0.49267088  1
  Zr  Zr19  1  0.99972456  0.38996609  0.79770590  1
