# generated using pymatgen
data_ZrTaTiPtWC5
_symmetry_space_group_name_H-M   'P 1'
_cell_length_a   5.48718732
_cell_length_b   5.46819734
_cell_length_c   8.38570222
_cell_angle_alpha   109.26212664
_cell_angle_beta   108.70454636
_cell_angle_gamma   80.24880593
_symmetry_Int_Tables_number   1
_chemical_formula_structural   ZrTaTiPtWC5
_chemical_formula_sum   'Zr2 Ta2 Ti2 Pt2 W2 C10'
_cell_volume   224.41317624
_cell_formula_units_Z   2
loop_
 _symmetry_equiv_pos_site_id
 _symmetry_equiv_pos_as_xyz
  1  'x, y, z'
loop_
 _atom_site_type_symbol
 _atom_site_label
 _atom_site_symmetry_multiplicity
 _atom_site_fract_x
 _atom_site_fract_y
 _atom_site_fract_z
 _atom_site_occupancy
  C  C0  1  0.75472745  0.11419526  0.53889215  1
  C  C1  1  0.24153791  0.85486335  0.45253729  1
  C  C2  1  0.75863822  0.55298081  0.34381289  1
  C  C3  1  0.23982176  0.24859608  0.24234760  1
  C  C4  1  0.74221650  0.94868132  0.14847788  1
  C  C5  1  0.24984954  0.65727258  0.05038578  1
  C  C6  1  0.74343518  0.35403027  0.95403494  1
  C  C7  1  0.25960467  0.04805945  0.85288179  1
  C  C8  1  0.74718592  0.75774594  0.75058546  1
  C  C9  1  0.25190142  0.45202073  0.64895061  1
  Pt  Pt10  1  0.01097402  0.19422396  0.40585424  1
  Pt  Pt11  1  0.49665705  0.89769868  0.29948279  1
  Ta  Ta12  1  0.49606331  0.30372494  0.09183763  1
  Ta  Ta13  1  0.00424708  0.00510594  0.00306259  1
  Ti  Ti14  1  0.49183234  0.09654899  0.69730007  1
  Ti  Ti15  1  0.98502814  0.62830520  0.21249233  1
  W  W16  1  0.01406750  0.79922556  0.62956426  1
  W  W17  1  0.51080893  0.70218612  0.88793326  1
  Zr  Zr18  1  0.50400942  0.49111864  0.49039818  1
  Zr  Zr19  1  0.99739366  0.39341615  0.79916824  1
