# generated using pymatgen
data_ZrTaTiNiWC5
_symmetry_space_group_name_H-M   'P 1'
_cell_length_a   5.44046588
_cell_length_b   5.40993594
_cell_length_c   8.24025216
_cell_angle_alpha   109.05728672
_cell_angle_beta   109.13445554
_cell_angle_gamma   80.29623179
_symmetry_Int_Tables_number   1
_chemical_formula_structural   ZrTaTiNiWC5
_chemical_formula_sum   'Zr2 Ta2 Ti2 Ni2 W2 C10'
_cell_volume   216.05954862
_cell_formula_units_Z   2
loop_
 _symmetry_equiv_pos_site_id
 _symmetry_equiv_pos_as_xyz
  1  'x, y, z'
loop_
 _atom_site_type_symbol
 _atom_site_label
 _atom_site_symmetry_multiplicity
 _atom_site_fract_x
 _atom_site_fract_y
 _atom_site_fract_z
 _atom_site_occupancy
  C  C0  1  0.74654820  0.11689058  0.53480628  1
  C  C1  1  0.24097179  0.85948319  0.44897417  1
  C  C2  1  0.76297918  0.55316871  0.34786229  1
  C  C3  1  0.24075183  0.24802803  0.24704574  1
  C  C4  1  0.74618365  0.94536153  0.15355630  1
  C  C5  1  0.25973097  0.66071245  0.05703516  1
  C  C6  1  0.74501325  0.35367509  0.95507370  1
  C  C7  1  0.25797400  0.04537374  0.85181283  1
  C  C8  1  0.74834742  0.76100300  0.75186810  1
  C  C9  1  0.24718092  0.45068682  0.64709208  1
  Ni  Ni10  1  0.00727240  0.17402807  0.39261201  1
  Ni  Ni11  1  0.49235786  0.91593539  0.29925539  1
  Ta  Ta12  1  0.50425856  0.30495808  0.10261635  1
  Ta  Ta13  1  0.00515038  0.00692164  0.00855338  1
  Ti  Ti14  1  0.48632316  0.09600339  0.69218563  1
  Ti  Ti15  1  0.99841939  0.61735724  0.21077168  1
  W  W16  1  0.00111322  0.80060403  0.60997756  1
  W  W17  1  0.51045213  0.70280768  0.89910425  1
  Zr  Zr18  1  0.50186771  0.49401328  0.49331643  1
  Zr  Zr19  1  0.99710399  0.39298805  0.79648068  1
