# generated using pymatgen
data_ZrTaTiNbWC5
_symmetry_space_group_name_H-M   'P 1'
_cell_length_a   5.47781538
_cell_length_b   5.47330799
_cell_length_c   8.36549004
_cell_angle_alpha   109.02218178
_cell_angle_beta   109.08506054
_cell_angle_gamma   80.41631772
_symmetry_Int_Tables_number   1
_chemical_formula_structural   ZrTaTiNbWC5
_chemical_formula_sum   'Zr2 Ta2 Ti2 Nb2 W2 C10'
_cell_volume   223.57821782
_cell_formula_units_Z   2
loop_
 _symmetry_equiv_pos_site_id
 _symmetry_equiv_pos_as_xyz
  1  'x, y, z'
loop_
 _atom_site_type_symbol
 _atom_site_label
 _atom_site_symmetry_multiplicity
 _atom_site_fract_x
 _atom_site_fract_y
 _atom_site_fract_z
 _atom_site_occupancy
  C  C0  1  0.75027206  0.13832989  0.55082338  1
  C  C1  1  0.24274634  0.85382525  0.45168036  1
  C  C2  1  0.75737954  0.55348166  0.34471473  1
  C  C3  1  0.24440141  0.25044250  0.24476150  1
  C  C4  1  0.74978750  0.94590969  0.14857555  1
  C  C5  1  0.25170471  0.65507885  0.05146605  1
  C  C6  1  0.74459671  0.34852427  0.95265287  1
  C  C7  1  0.25803920  0.03991723  0.85032644  1
  C  C8  1  0.74819013  0.76272966  0.75276444  1
  C  C9  1  0.25298637  0.45159003  0.65293416  1
  Nb  Nb10  1  0.00324215  0.20022175  0.40038448  1
  Nb  Nb11  1  0.49950459  0.89945659  0.30087341  1
  Ta  Ta12  1  0.50067489  0.30488507  0.10182182  1
  Ta  Ta13  1  0.99666765  0.00287597  0.00105410  1
  Ti  Ti14  1  0.49915532  0.09985018  0.70181737  1
  Ti  Ti15  1  0.00082665  0.60024288  0.19880352  1
  W  W16  1  0.99502829  0.80087148  0.59381601  1
  W  W17  1  0.50407730  0.69328395  0.89926156  1
  Zr  Zr18  1  0.50066541  0.50008445  0.50030302  1
  Zr  Zr19  1  0.00005379  0.39839864  0.80116523  1
