# generated using pymatgen
data_ZrTaTiMoWC5
_symmetry_space_group_name_H-M   'P 1'
_cell_length_a   5.45352315
_cell_length_b   5.46298228
_cell_length_c   8.32950254
_cell_angle_alpha   109.15528102
_cell_angle_beta   109.16017908
_cell_angle_gamma   80.30357448
_symmetry_Int_Tables_number   1
_chemical_formula_structural   ZrTaTiMoWC5
_chemical_formula_sum   'Zr2 Ta2 Ti2 Mo2 W2 C10'
_cell_volume   220.91787389
_cell_formula_units_Z   2
loop_
 _symmetry_equiv_pos_site_id
 _symmetry_equiv_pos_as_xyz
  1  'x, y, z'
loop_
 _atom_site_type_symbol
 _atom_site_label
 _atom_site_symmetry_multiplicity
 _atom_site_fract_x
 _atom_site_fract_y
 _atom_site_fract_z
 _atom_site_occupancy
  C  C0  1  0.75339563  0.13432220  0.54533039  1
  C  C1  1  0.24408443  0.85191018  0.45063741  1
  C  C2  1  0.75902072  0.55394383  0.34472528  1
  C  C3  1  0.24569880  0.25077052  0.24559562  1
  C  C4  1  0.74559166  0.94681519  0.15081124  1
  C  C5  1  0.25063254  0.65612605  0.05261414  1
  C  C6  1  0.74384929  0.35009632  0.95426251  1
  C  C7  1  0.25740447  0.03981925  0.85055346  1
  C  C8  1  0.74939613  0.76390151  0.75140073  1
  C  C9  1  0.25484580  0.44947587  0.65218083  1
  Mo  Mo10  1  0.03369654  0.20313221  0.41291022  1
  Mo  Mo11  1  0.47498630  0.90402057  0.30252048  1
  Ta  Ta12  1  0.50562223  0.30753774  0.10543840  1
  Ta  Ta13  1  0.00096585  0.00187132  0.00500082  1
  Ti  Ti14  1  0.49622191  0.09393940  0.70262191  1
  Ti  Ti15  1  0.99973705  0.60920618  0.20068176  1
  W  W16  1  0.99460223  0.80450837  0.58491259  1
  W  W17  1  0.48683963  0.68494223  0.88795011  1
  Zr  Zr18  1  0.50432245  0.49548424  0.49754065  1
  Zr  Zr19  1  0.99908638  0.39817685  0.80231143  1
