# generated using pymatgen
data_ZrTaTiIrWC5
_symmetry_space_group_name_H-M   'P 1'
_cell_length_a   5.48136087
_cell_length_b   5.45417453
_cell_length_c   8.34382034
_cell_angle_alpha   110.02910049
_cell_angle_beta   108.96867466
_cell_angle_gamma   80.26982092
_symmetry_Int_Tables_number   1
_chemical_formula_structural   ZrTaTiIrWC5
_chemical_formula_sum   'Zr2 Ta2 Ti2 Ir2 W2 C10'
_cell_volume   221.16812217
_cell_formula_units_Z   2
loop_
 _symmetry_equiv_pos_site_id
 _symmetry_equiv_pos_as_xyz
  1  'x, y, z'
loop_
 _atom_site_type_symbol
 _atom_site_label
 _atom_site_symmetry_multiplicity
 _atom_site_fract_x
 _atom_site_fract_y
 _atom_site_fract_z
 _atom_site_occupancy
  C  C0  1  0.75272450  0.11580884  0.53755147  1
  C  C1  1  0.23469866  0.86479249  0.45123890  1
  C  C2  1  0.75939285  0.56534472  0.34686997  1
  C  C3  1  0.24161610  0.25145095  0.24396546  1
  C  C4  1  0.74521764  0.95726613  0.15596424  1
  C  C5  1  0.24932304  0.65333037  0.04720986  1
  C  C6  1  0.74857933  0.35059632  0.95494529  1
  C  C7  1  0.26039149  0.04015791  0.85100582  1
  C  C8  1  0.74839564  0.75653981  0.74982682  1
  C  C9  1  0.26154026  0.44941993  0.65398842  1
  Ir  Ir10  1  0.00137572  0.21032137  0.41208202  1
  Ir  Ir11  1  0.47882359  0.88823014  0.29703766  1
  Ta  Ta12  1  0.50663409  0.31832210  0.10101933  1
  Ta  Ta13  1  0.00953022  0.00484665  0.00489312  1
  Ti  Ti14  1  0.49328641  0.09595525  0.69620720  1
  Ti  Ti15  1  0.99371519  0.63169249  0.20746357  1
  W  W16  1  0.99703229  0.77229685  0.60703873  1
  W  W17  1  0.51398298  0.70049530  0.89187115  1
  Zr  Zr18  1  0.50420697  0.48535459  0.49200274  1
  Zr  Zr19  1  0.99953302  0.38777780  0.79781825  1
