# generated using pymatgen
data_ZrTaTiFeWC5
_symmetry_space_group_name_H-M   'P 1'
_cell_length_a   5.44162574
_cell_length_b   5.39197246
_cell_length_c   8.17499286
_cell_angle_alpha   108.45534839
_cell_angle_beta   109.54939867
_cell_angle_gamma   80.56355394
_symmetry_Int_Tables_number   1
_chemical_formula_structural   ZrTaTiFeWC5
_chemical_formula_sum   'Zr2 Ta2 Ti2 Fe2 W2 C10'
_cell_volume   213.95885394
_cell_formula_units_Z   2
loop_
 _symmetry_equiv_pos_site_id
 _symmetry_equiv_pos_as_xyz
  1  'x, y, z'
loop_
 _atom_site_type_symbol
 _atom_site_label
 _atom_site_symmetry_multiplicity
 _atom_site_fract_x
 _atom_site_fract_y
 _atom_site_fract_z
 _atom_site_occupancy
  C  C0  1  0.75056636  0.13355257  0.53428073  1
  C  C1  1  0.24033894  0.87024490  0.44591633  1
  C  C2  1  0.75688592  0.55591038  0.34652722  1
  C  C3  1  0.24921875  0.23238043  0.25485224  1
  C  C4  1  0.75096506  0.94612861  0.15880543  1
  C  C5  1  0.25732238  0.65422880  0.05806116  1
  C  C6  1  0.74489354  0.34941886  0.95704252  1
  C  C7  1  0.25472363  0.03997000  0.85162095  1
  C  C8  1  0.74419999  0.76653069  0.75015842  1
  C  C9  1  0.24859307  0.45125183  0.64999859  1
  Fe  Fe10  1  0.04700364  0.19811159  0.42210934  1
  Fe  Fe11  1  0.50913614  0.89774669  0.27820465  1
  Ta  Ta12  1  0.51046984  0.30350377  0.11101509  1
  Ta  Ta13  1  0.00213381  0.99921701  0.01137446  1
  Ti  Ti14  1  0.48636849  0.09632226  0.69870562  1
  Ti  Ti15  1  0.99573852  0.60708123  0.20428128  1
  W  W16  1  0.97169273  0.80824586  0.58169445  1
  W  W17  1  0.48977257  0.68668876  0.88999539  1
  Zr  Zr18  1  0.49423929  0.50580403  0.49455925  1
  Zr  Zr19  1  0.99573732  0.39766174  0.80079688  1
