# generated using pymatgen
data_ZrTaTiCrWC5
_symmetry_space_group_name_H-M   'P 1'
_cell_length_a   5.40069932
_cell_length_b   5.41993451
_cell_length_c   8.22727724
_cell_angle_alpha   109.08443083
_cell_angle_beta   109.18005306
_cell_angle_gamma   80.39331485
_symmetry_Int_Tables_number   1
_chemical_formula_structural   ZrTaTiCrWC5
_chemical_formula_sum   'Zr2 Ta2 Ti2 Cr2 W2 C10'
_cell_volume   214.47721108
_cell_formula_units_Z   2
loop_
 _symmetry_equiv_pos_site_id
 _symmetry_equiv_pos_as_xyz
  1  'x, y, z'
loop_
 _atom_site_type_symbol
 _atom_site_label
 _atom_site_symmetry_multiplicity
 _atom_site_fract_x
 _atom_site_fract_y
 _atom_site_fract_z
 _atom_site_occupancy
  C  C0  1  0.75252651  0.13062178  0.53457926  1
  C  C1  1  0.24250427  0.86228481  0.44671465  1
  C  C2  1  0.75870062  0.55585985  0.34504288  1
  C  C3  1  0.24580083  0.24130894  0.25154797  1
  C  C4  1  0.74456342  0.94683002  0.15520845  1
  C  C5  1  0.25739537  0.65971671  0.05871906  1
  C  C6  1  0.74454254  0.34953245  0.95484916  1
  C  C7  1  0.25720541  0.03943380  0.85049390  1
  C  C8  1  0.74999216  0.76397321  0.75008433  1
  C  C9  1  0.24998714  0.44429583  0.64550739  1
  Cr  Cr10  1  0.04888836  0.19863947  0.41666722  1
  Cr  Cr11  1  0.46529157  0.91148818  0.30624111  1
  Ta  Ta12  1  0.50915379  0.30440737  0.10905820  1
  Ta  Ta13  1  0.00210909  0.00059254  0.00804572  1
  Ti  Ti14  1  0.49436532  0.09551680  0.69944012  1
  Ti  Ti15  1  0.99760640  0.61187971  0.20163287  1
  W  W16  1  0.98823676  0.80517713  0.58257384  1
  W  W17  1  0.48789450  0.68547715  0.88747270  1
  Zr  Zr18  1  0.50403661  0.49704594  0.49556743  1
  Zr  Zr19  1  0.99919933  0.39591829  0.80055374  1
