# generated using pymatgen
data_ZrTaTiAgWC5
_symmetry_space_group_name_H-M   'P 1'
_cell_length_a   5.62327964
_cell_length_b   5.50675790
_cell_length_c   8.71631073
_cell_angle_alpha   111.02363430
_cell_angle_beta   111.30534932
_cell_angle_gamma   78.35868890
_symmetry_Int_Tables_number   1
_chemical_formula_structural   ZrTaTiAgWC5
_chemical_formula_sum   'Zr2 Ta2 Ti2 Ag2 W2 C10'
_cell_volume   233.93074442
_cell_formula_units_Z   2
loop_
 _symmetry_equiv_pos_site_id
 _symmetry_equiv_pos_as_xyz
  1  'x, y, z'
loop_
 _atom_site_type_symbol
 _atom_site_label
 _atom_site_symmetry_multiplicity
 _atom_site_fract_x
 _atom_site_fract_y
 _atom_site_fract_z
 _atom_site_occupancy
  C  C0  1  0.72559544  0.13062067  0.57376436  1
  C  C1  1  0.21284695  0.82483710  0.46946107  1
  C  C2  1  0.75619211  0.55605272  0.34751236  1
  C  C3  1  0.26376776  0.27942872  0.22122341  1
  C  C4  1  0.77095654  0.94179722  0.11903626  1
  C  C5  1  0.26473332  0.66046630  0.04161450  1
  C  C6  1  0.75569860  0.35784874  0.95441758  1
  C  C7  1  0.26572335  0.04193916  0.85221690  1
  C  C8  1  0.74494269  0.75526800  0.75011425  1
  C  C9  1  0.25376317  0.45791331  0.66041240  1
  Ag  Ag10  1  0.98525028  0.18140324  0.40285494  1
  Ag  Ag11  1  0.46458229  0.91035608  0.31334650  1
  Ta  Ta12  1  0.51786164  0.33281971  0.10140845  1
  Ta  Ta13  1  0.02568573  0.01070491  0.00045742  1
  Ti  Ti14  1  0.49459243  0.09745022  0.70402695  1
  Ti  Ti15  1  0.00690590  0.61380441  0.20411742  1
  W  W16  1  0.97966010  0.75944479  0.58174820  1
  W  W17  1  0.52550994  0.72172680  0.91250180  1
  Zr  Zr18  1  0.48712083  0.47981007  0.49647420  1
  Zr  Zr19  1  0.99861091  0.38630782  0.79329101  1
