# generated using pymatgen
data_ZrTaTiCdWC5
_symmetry_space_group_name_H-M   'P 1'
_cell_length_a   5.59055637
_cell_length_b   5.53363724
_cell_length_c   8.71423022
_cell_angle_alpha   109.75335042
_cell_angle_beta   110.34594998
_cell_angle_gamma   79.02027004
_symmetry_Int_Tables_number   1
_chemical_formula_structural   ZrTaTiCdWC5
_chemical_formula_sum   'Zr2 Ta2 Ti2 Cd2 W2 C10'
_cell_volume   237.07713112
_cell_formula_units_Z   2
loop_
 _symmetry_equiv_pos_site_id
 _symmetry_equiv_pos_as_xyz
  1  'x, y, z'
loop_
 _atom_site_type_symbol
 _atom_site_label
 _atom_site_symmetry_multiplicity
 _atom_site_fract_x
 _atom_site_fract_y
 _atom_site_fract_z
 _atom_site_occupancy
  C  C0  1  0.73945173  0.14056171  0.57550889  1
  C  C1  1  0.22234004  0.82660954  0.46876737  1
  C  C2  1  0.75132326  0.54950524  0.33824179  1
  C  C3  1  0.24934833  0.27297456  0.22295305  1
  C  C4  1  0.75459338  0.93650160  0.11602685  1
  C  C5  1  0.26248101  0.65361421  0.03202956  1
  C  C6  1  0.74813174  0.35496704  0.95410715  1
  C  C7  1  0.25965002  0.04240199  0.84953184  1
  C  C8  1  0.75239744  0.75991498  0.75035775  1
  C  C9  1  0.26035398  0.46167055  0.66119735  1
  Cd  Cd10  1  0.99641861  0.18889873  0.39864606  1
  Cd  Cd11  1  0.47755062  0.90961653  0.31213410  1
  Ta  Ta12  1  0.50238027  0.30291417  0.09410570  1
  Ta  Ta13  1  0.00434382  0.00533540  0.99953966  1
  Ti  Ti14  1  0.50522920  0.10419875  0.70315742  1
  Ti  Ti15  1  0.97571088  0.60465745  0.20858402  1
  W  W16  1  0.02969401  0.79943328  0.61976699  1
  W  W17  1  0.50102519  0.69833047  0.90325439  1
  Zr  Zr18  1  0.50799754  0.49112789  0.49303819  1
  Zr  Zr19  1  0.99957892  0.39676591  0.79905187  1
