# generated using pymatgen
data_AlZn2C
_symmetry_space_group_name_H-M   'P 1'
_cell_length_a   6.72579413
_cell_length_b   6.72579413
_cell_length_c   23.65385863
_cell_angle_alpha   90.00000000
_cell_angle_beta   90.00000000
_cell_angle_gamma   120.00000002
_symmetry_Int_Tables_number   1
_chemical_formula_structural   AlZn2C
_chemical_formula_sum   'Al16 Zn32 C16'
_cell_volume   926.65861674
_cell_formula_units_Z   16
loop_
 _symmetry_equiv_pos_site_id
 _symmetry_equiv_pos_as_xyz
  1  'x, y, z'
loop_
 _atom_site_type_symbol
 _atom_site_label
 _atom_site_symmetry_multiplicity
 _atom_site_fract_x
 _atom_site_fract_y
 _atom_site_fract_z
 _atom_site_occupancy
  C  C0  1  0.00000000  0.00000000  0.00000000  1
  C  C1  1  0.00000000  0.00000000  0.25000000  1
  C  C2  1  0.00000000  0.00000000  0.50000000  1
  C  C3  1  0.00000000  0.00000000  0.75000000  1
  C  C4  1  0.00000000  0.50000000  0.00000000  1
  C  C5  1  0.00000000  0.50000000  0.25000000  1
  C  C6  1  0.00000000  0.50000000  0.50000000  1
  C  C7  1  0.00000000  0.50000000  0.75000000  1
  C  C8  1  0.50000000  0.00000000  0.00000000  1
  C  C9  1  0.50000000  0.00000000  0.25000000  1
  C  C10  1  0.50000000  0.00000000  0.50000000  1
  C  C11  1  0.50000000  0.00000000  0.75000000  1
  C  C12  1  0.50000000  0.50000000  0.00000000  1
  C  C13  1  0.50000000  0.50000000  0.25000000  1
  C  C14  1  0.50000000  0.50000000  0.50000000  1
  C  C15  1  0.50000000  0.50000000  0.75000000  1
  Al  Al16  1  0.16666667  0.33333333  0.37500000  1
  Al  Al17  1  0.33333333  0.16666667  0.12500000  1
  Al  Al18  1  0.16666667  0.33333333  0.87500000  1
  Al  Al19  1  0.33333333  0.16666667  0.62500000  1
  Al  Al20  1  0.16666667  0.83333333  0.37500000  1
  Al  Al21  1  0.33333333  0.66666667  0.12500000  1
  Al  Al22  1  0.16666667  0.83333333  0.87500000  1
  Al  Al23  1  0.33333333  0.66666667  0.62500000  1
  Al  Al24  1  0.66666667  0.33333333  0.37500000  1
  Al  Al25  1  0.83333333  0.16666667  0.12500000  1
  Al  Al26  1  0.66666667  0.33333333  0.87500000  1
  Al  Al27  1  0.83333333  0.16666667  0.62500000  1
  Al  Al28  1  0.66666667  0.83333333  0.37500000  1
  Al  Al29  1  0.83333333  0.66666667  0.12500000  1
  Al  Al30  1  0.66666667  0.83333333  0.87500000  1
  Al  Al31  1  0.83333333  0.66666667  0.62500000  1
  Zn  Zn32  1  0.16666667  0.33333333  0.21030363  1
  Zn  Zn33  1  0.33333333  0.16666667  0.46030363  1
  Zn  Zn34  1  0.33333333  0.16666667  0.28969637  1
  Zn  Zn35  1  0.16666667  0.33333333  0.03969637  1
  Zn  Zn36  1  0.16666667  0.33333333  0.71030363  1
  Zn  Zn37  1  0.33333333  0.16666667  0.96030363  1
  Zn  Zn38  1  0.33333333  0.16666667  0.78969637  1
  Zn  Zn39  1  0.16666667  0.33333333  0.53969637  1
  Zn  Zn40  1  0.16666667  0.83333333  0.21030363  1
  Zn  Zn41  1  0.33333333  0.66666667  0.46030363  1
  Zn  Zn42  1  0.33333333  0.66666667  0.28969637  1
  Zn  Zn43  1  0.16666667  0.83333333  0.03969637  1
  Zn  Zn44  1  0.16666667  0.83333333  0.71030363  1
  Zn  Zn45  1  0.33333333  0.66666667  0.96030363  1
  Zn  Zn46  1  0.33333333  0.66666667  0.78969637  1
  Zn  Zn47  1  0.16666667  0.83333333  0.53969637  1
  Zn  Zn48  1  0.66666667  0.33333333  0.21030363  1
  Zn  Zn49  1  0.83333333  0.16666667  0.46030363  1
  Zn  Zn50  1  0.83333333  0.16666667  0.28969637  1
  Zn  Zn51  1  0.66666667  0.33333333  0.03969637  1
  Zn  Zn52  1  0.66666667  0.33333333  0.71030363  1
  Zn  Zn53  1  0.83333333  0.16666667  0.96030363  1
  Zn  Zn54  1  0.83333333  0.16666667  0.78969637  1
  Zn  Zn55  1  0.66666667  0.33333333  0.53969637  1
  Zn  Zn56  1  0.66666667  0.83333333  0.21030363  1
  Zn  Zn57  1  0.83333333  0.66666667  0.46030363  1
  Zn  Zn58  1  0.83333333  0.66666667  0.28969637  1
  Zn  Zn59  1  0.66666667  0.83333333  0.03969637  1
  Zn  Zn60  1  0.66666667  0.83333333  0.71030363  1
  Zn  Zn61  1  0.83333333  0.66666667  0.96030363  1
  Zn  Zn62  1  0.83333333  0.66666667  0.78969637  1
  Zn  Zn63  1  0.66666667  0.83333333  0.53969637  1
