# generated using pymatgen
data_Y2AlC
_symmetry_space_group_name_H-M   'P 1'
_cell_length_a   7.14218789
_cell_length_b   7.14218788
_cell_length_c   31.93237766
_cell_angle_alpha   90.00000000
_cell_angle_beta   90.00000000
_cell_angle_gamma   120.00000001
_symmetry_Int_Tables_number   1
_chemical_formula_structural   Y2AlC
_chemical_formula_sum   'Y32 Al16 C16'
_cell_volume   1410.66674984
_cell_formula_units_Z   16
loop_
 _symmetry_equiv_pos_site_id
 _symmetry_equiv_pos_as_xyz
  1  'x, y, z'
loop_
 _atom_site_type_symbol
 _atom_site_label
 _atom_site_symmetry_multiplicity
 _atom_site_fract_x
 _atom_site_fract_y
 _atom_site_fract_z
 _atom_site_occupancy
  C  C0  1  0.00000000  0.00000000  0.00000000  1
  C  C1  1  0.00000000  0.00000000  0.25000000  1
  C  C2  1  0.00000000  0.00000000  0.50000000  1
  C  C3  1  0.00000000  0.00000000  0.75000000  1
  C  C4  1  0.00000000  0.50000000  0.00000000  1
  C  C5  1  0.00000000  0.50000000  0.25000000  1
  C  C6  1  0.00000000  0.50000000  0.50000000  1
  C  C7  1  0.00000000  0.50000000  0.75000000  1
  C  C8  1  0.50000000  0.00000000  0.00000000  1
  C  C9  1  0.50000000  0.00000000  0.25000000  1
  C  C10  1  0.50000000  0.00000000  0.50000000  1
  C  C11  1  0.50000000  0.00000000  0.75000000  1
  C  C12  1  0.50000000  0.50000000  0.00000000  1
  C  C13  1  0.50000000  0.50000000  0.25000000  1
  C  C14  1  0.50000000  0.50000000  0.50000000  1
  C  C15  1  0.50000000  0.50000000  0.75000000  1
  Al  Al16  1  0.16666667  0.33333333  0.37500000  1
  Al  Al17  1  0.33333333  0.16666667  0.12500000  1
  Al  Al18  1  0.16666667  0.33333333  0.87500000  1
  Al  Al19  1  0.33333333  0.16666667  0.62500000  1
  Al  Al20  1  0.16666667  0.83333333  0.37500000  1
  Al  Al21  1  0.33333333  0.66666667  0.12500000  1
  Al  Al22  1  0.16666667  0.83333333  0.87500000  1
  Al  Al23  1  0.33333333  0.66666667  0.62500000  1
  Al  Al24  1  0.66666667  0.33333333  0.37500000  1
  Al  Al25  1  0.83333333  0.16666667  0.12500000  1
  Al  Al26  1  0.66666667  0.33333333  0.87500000  1
  Al  Al27  1  0.83333333  0.16666667  0.62500000  1
  Al  Al28  1  0.66666667  0.83333333  0.37500000  1
  Al  Al29  1  0.83333333  0.66666667  0.12500000  1
  Al  Al30  1  0.66666667  0.83333333  0.87500000  1
  Al  Al31  1  0.83333333  0.66666667  0.62500000  1
  Y  Y32  1  0.16666667  0.33333333  0.20737273  1
  Y  Y33  1  0.33333333  0.16666667  0.45737273  1
  Y  Y34  1  0.33333333  0.16666667  0.29262727  1
  Y  Y35  1  0.16666667  0.33333333  0.04262727  1
  Y  Y36  1  0.16666667  0.33333333  0.70737273  1
  Y  Y37  1  0.33333333  0.16666667  0.95737273  1
  Y  Y38  1  0.33333333  0.16666667  0.79262727  1
  Y  Y39  1  0.16666667  0.33333333  0.54262727  1
  Y  Y40  1  0.16666667  0.83333333  0.20737273  1
  Y  Y41  1  0.33333333  0.66666667  0.45737273  1
  Y  Y42  1  0.33333333  0.66666667  0.29262727  1
  Y  Y43  1  0.16666667  0.83333333  0.04262727  1
  Y  Y44  1  0.16666667  0.83333333  0.70737273  1
  Y  Y45  1  0.33333333  0.66666667  0.95737273  1
  Y  Y46  1  0.33333333  0.66666667  0.79262727  1
  Y  Y47  1  0.16666667  0.83333333  0.54262727  1
  Y  Y48  1  0.66666667  0.33333333  0.20737273  1
  Y  Y49  1  0.83333333  0.16666667  0.45737273  1
  Y  Y50  1  0.83333333  0.16666667  0.29262727  1
  Y  Y51  1  0.66666667  0.33333333  0.04262727  1
  Y  Y52  1  0.66666667  0.33333333  0.70737273  1
  Y  Y53  1  0.83333333  0.16666667  0.95737273  1
  Y  Y54  1  0.83333333  0.16666667  0.79262727  1
  Y  Y55  1  0.66666667  0.33333333  0.54262727  1
  Y  Y56  1  0.66666667  0.83333333  0.20737273  1
  Y  Y57  1  0.83333333  0.66666667  0.45737273  1
  Y  Y58  1  0.83333333  0.66666667  0.29262727  1
  Y  Y59  1  0.66666667  0.83333333  0.04262727  1
  Y  Y60  1  0.66666667  0.83333333  0.70737273  1
  Y  Y61  1  0.83333333  0.66666667  0.95737273  1
  Y  Y62  1  0.83333333  0.66666667  0.79262727  1
  Y  Y63  1  0.66666667  0.83333333  0.54262727  1
