# generated using pymatgen
data_Zr2AlC
_symmetry_space_group_name_H-M   'P 1'
_cell_length_a   6.64481400
_cell_length_b   6.64481400
_cell_length_c   29.19293678
_cell_angle_alpha   90.00000000
_cell_angle_beta   90.00000000
_cell_angle_gamma   119.99999999
_symmetry_Int_Tables_number   1
_chemical_formula_structural   Zr2AlC
_chemical_formula_sum   'Zr32 Al16 C16'
_cell_volume   1116.28239690
_cell_formula_units_Z   16
loop_
 _symmetry_equiv_pos_site_id
 _symmetry_equiv_pos_as_xyz
  1  'x, y, z'
loop_
 _atom_site_type_symbol
 _atom_site_label
 _atom_site_symmetry_multiplicity
 _atom_site_fract_x
 _atom_site_fract_y
 _atom_site_fract_z
 _atom_site_occupancy
  C  C0  1  0.00000000  0.00000000  0.00000000  1
  C  C1  1  0.00000000  0.00000000  0.25000000  1
  C  C2  1  0.00000000  0.00000000  0.50000000  1
  C  C3  1  0.00000000  0.00000000  0.75000000  1
  C  C4  1  0.00000000  0.50000000  0.00000000  1
  C  C5  1  0.00000000  0.50000000  0.25000000  1
  C  C6  1  0.00000000  0.50000000  0.50000000  1
  C  C7  1  0.00000000  0.50000000  0.75000000  1
  C  C8  1  0.50000000  0.00000000  0.00000000  1
  C  C9  1  0.50000000  0.00000000  0.25000000  1
  C  C10  1  0.50000000  0.00000000  0.50000000  1
  C  C11  1  0.50000000  0.00000000  0.75000000  1
  C  C12  1  0.50000000  0.50000000  0.00000000  1
  C  C13  1  0.50000000  0.50000000  0.25000000  1
  C  C14  1  0.50000000  0.50000000  0.50000000  1
  C  C15  1  0.50000000  0.50000000  0.75000000  1
  Al  Al16  1  0.16666667  0.33333333  0.37500000  1
  Al  Al17  1  0.33333333  0.16666667  0.12500000  1
  Al  Al18  1  0.16666667  0.33333333  0.87500000  1
  Al  Al19  1  0.33333333  0.16666667  0.62500000  1
  Al  Al20  1  0.16666667  0.83333333  0.37500000  1
  Al  Al21  1  0.33333333  0.66666667  0.12500000  1
  Al  Al22  1  0.16666667  0.83333333  0.87500000  1
  Al  Al23  1  0.33333333  0.66666667  0.62500000  1
  Al  Al24  1  0.66666667  0.33333333  0.37500000  1
  Al  Al25  1  0.83333333  0.16666667  0.12500000  1
  Al  Al26  1  0.66666667  0.33333333  0.87500000  1
  Al  Al27  1  0.83333333  0.16666667  0.62500000  1
  Al  Al28  1  0.66666667  0.83333333  0.37500000  1
  Al  Al29  1  0.83333333  0.66666667  0.12500000  1
  Al  Al30  1  0.66666667  0.83333333  0.87500000  1
  Al  Al31  1  0.83333333  0.66666667  0.62500000  1
  Zr  Zr32  1  0.16666667  0.33333333  0.20669699  1
  Zr  Zr33  1  0.33333333  0.16666667  0.45669699  1
  Zr  Zr34  1  0.33333333  0.16666667  0.29330301  1
  Zr  Zr35  1  0.16666667  0.33333333  0.04330301  1
  Zr  Zr36  1  0.16666667  0.33333333  0.70669699  1
  Zr  Zr37  1  0.33333333  0.16666667  0.95669699  1
  Zr  Zr38  1  0.33333333  0.16666667  0.79330301  1
  Zr  Zr39  1  0.16666667  0.33333333  0.54330301  1
  Zr  Zr40  1  0.16666667  0.83333333  0.20669699  1
  Zr  Zr41  1  0.33333333  0.66666667  0.45669699  1
  Zr  Zr42  1  0.33333333  0.66666667  0.29330301  1
  Zr  Zr43  1  0.16666667  0.83333333  0.04330301  1
  Zr  Zr44  1  0.16666667  0.83333333  0.70669699  1
  Zr  Zr45  1  0.33333333  0.66666667  0.95669699  1
  Zr  Zr46  1  0.33333333  0.66666667  0.79330301  1
  Zr  Zr47  1  0.16666667  0.83333333  0.54330301  1
  Zr  Zr48  1  0.66666667  0.33333333  0.20669699  1
  Zr  Zr49  1  0.83333333  0.16666667  0.45669699  1
  Zr  Zr50  1  0.83333333  0.16666667  0.29330301  1
  Zr  Zr51  1  0.66666667  0.33333333  0.04330301  1
  Zr  Zr52  1  0.66666667  0.33333333  0.70669699  1
  Zr  Zr53  1  0.83333333  0.16666667  0.95669699  1
  Zr  Zr54  1  0.83333333  0.16666667  0.79330301  1
  Zr  Zr55  1  0.66666667  0.33333333  0.54330301  1
  Zr  Zr56  1  0.66666667  0.83333333  0.20669699  1
  Zr  Zr57  1  0.83333333  0.66666667  0.45669699  1
  Zr  Zr58  1  0.83333333  0.66666667  0.29330301  1
  Zr  Zr59  1  0.66666667  0.83333333  0.04330301  1
  Zr  Zr60  1  0.66666667  0.83333333  0.70669699  1
  Zr  Zr61  1  0.83333333  0.66666667  0.95669699  1
  Zr  Zr62  1  0.83333333  0.66666667  0.79330301  1
  Zr  Zr63  1  0.66666667  0.83333333  0.54330301  1
