# generated using pymatgen
data_AlAg2C
_symmetry_space_group_name_H-M   'P 1'
_cell_length_a   6.03207681
_cell_length_b   6.03207682
_cell_length_c   30.10771837
_cell_angle_alpha   90.00000000
_cell_angle_beta   90.00000000
_cell_angle_gamma   120.00000002
_symmetry_Int_Tables_number   1
_chemical_formula_structural   AlAg2C
_chemical_formula_sum   'Al16 Ag32 C16'
_cell_volume   948.72905933
_cell_formula_units_Z   16
loop_
 _symmetry_equiv_pos_site_id
 _symmetry_equiv_pos_as_xyz
  1  'x, y, z'
loop_
 _atom_site_type_symbol
 _atom_site_label
 _atom_site_symmetry_multiplicity
 _atom_site_fract_x
 _atom_site_fract_y
 _atom_site_fract_z
 _atom_site_occupancy
  C  C0  1  0.00000000  0.00000000  0.00000000  1
  C  C1  1  0.00000000  0.00000000  0.25000000  1
  C  C2  1  0.00000000  0.00000000  0.50000000  1
  C  C3  1  0.00000000  0.00000000  0.75000000  1
  C  C4  1  0.00000000  0.50000000  0.00000000  1
  C  C5  1  0.00000000  0.50000000  0.25000000  1
  C  C6  1  0.00000000  0.50000000  0.50000000  1
  C  C7  1  0.00000000  0.50000000  0.75000000  1
  C  C8  1  0.50000000  0.00000000  0.00000000  1
  C  C9  1  0.50000000  0.00000000  0.25000000  1
  C  C10  1  0.50000000  0.00000000  0.50000000  1
  C  C11  1  0.50000000  0.00000000  0.75000000  1
  C  C12  1  0.50000000  0.50000000  0.00000000  1
  C  C13  1  0.50000000  0.50000000  0.25000000  1
  C  C14  1  0.50000000  0.50000000  0.50000000  1
  C  C15  1  0.50000000  0.50000000  0.75000000  1
  Al  Al16  1  0.16666667  0.33333333  0.37500000  1
  Al  Al17  1  0.33333333  0.16666667  0.12500000  1
  Al  Al18  1  0.16666667  0.33333333  0.87500000  1
  Al  Al19  1  0.33333333  0.16666667  0.62500000  1
  Al  Al20  1  0.16666667  0.83333333  0.37500000  1
  Al  Al21  1  0.33333333  0.66666667  0.12500000  1
  Al  Al22  1  0.16666667  0.83333333  0.87500000  1
  Al  Al23  1  0.33333333  0.66666667  0.62500000  1
  Al  Al24  1  0.66666667  0.33333333  0.37500000  1
  Al  Al25  1  0.83333333  0.16666667  0.12500000  1
  Al  Al26  1  0.66666667  0.33333333  0.87500000  1
  Al  Al27  1  0.83333333  0.16666667  0.62500000  1
  Al  Al28  1  0.66666667  0.83333333  0.37500000  1
  Al  Al29  1  0.83333333  0.66666667  0.12500000  1
  Al  Al30  1  0.66666667  0.83333333  0.87500000  1
  Al  Al31  1  0.83333333  0.66666667  0.62500000  1
  Ag  Ag32  1  0.16666667  0.33333333  0.19679893  1
  Ag  Ag33  1  0.33333333  0.16666667  0.44679893  1
  Ag  Ag34  1  0.33333333  0.16666667  0.30320107  1
  Ag  Ag35  1  0.16666667  0.33333333  0.05320107  1
  Ag  Ag36  1  0.16666667  0.33333333  0.69679893  1
  Ag  Ag37  1  0.33333333  0.16666667  0.94679893  1
  Ag  Ag38  1  0.33333333  0.16666667  0.80320107  1
  Ag  Ag39  1  0.16666667  0.33333333  0.55320107  1
  Ag  Ag40  1  0.16666667  0.83333333  0.19679893  1
  Ag  Ag41  1  0.33333333  0.66666667  0.44679893  1
  Ag  Ag42  1  0.33333333  0.66666667  0.30320107  1
  Ag  Ag43  1  0.16666667  0.83333333  0.05320107  1
  Ag  Ag44  1  0.16666667  0.83333333  0.69679893  1
  Ag  Ag45  1  0.33333333  0.66666667  0.94679893  1
  Ag  Ag46  1  0.33333333  0.66666667  0.80320107  1
  Ag  Ag47  1  0.16666667  0.83333333  0.55320107  1
  Ag  Ag48  1  0.66666667  0.33333333  0.19679893  1
  Ag  Ag49  1  0.83333333  0.16666667  0.44679893  1
  Ag  Ag50  1  0.83333333  0.16666667  0.30320107  1
  Ag  Ag51  1  0.66666667  0.33333333  0.05320107  1
  Ag  Ag52  1  0.66666667  0.33333333  0.69679893  1
  Ag  Ag53  1  0.83333333  0.16666667  0.94679893  1
  Ag  Ag54  1  0.83333333  0.16666667  0.80320107  1
  Ag  Ag55  1  0.66666667  0.33333333  0.55320107  1
  Ag  Ag56  1  0.66666667  0.83333333  0.19679893  1
  Ag  Ag57  1  0.83333333  0.66666667  0.44679893  1
  Ag  Ag58  1  0.83333333  0.66666667  0.30320107  1
  Ag  Ag59  1  0.66666667  0.83333333  0.05320107  1
  Ag  Ag60  1  0.66666667  0.83333333  0.69679893  1
  Ag  Ag61  1  0.83333333  0.66666667  0.94679893  1
  Ag  Ag62  1  0.83333333  0.66666667  0.80320107  1
  Ag  Ag63  1  0.66666667  0.83333333  0.55320107  1
