# generated using pymatgen
data_AlCd2C
_symmetry_space_group_name_H-M   'P 1'
_cell_length_a   6.70313791
_cell_length_b   6.70313790
_cell_length_c   29.95136480
_cell_angle_alpha   90.00000000
_cell_angle_beta   90.00000000
_cell_angle_gamma   119.99999998
_symmetry_Int_Tables_number   1
_chemical_formula_structural   AlCd2C
_chemical_formula_sum   'Al16 Cd32 C16'
_cell_volume   1165.47659733
_cell_formula_units_Z   16
loop_
 _symmetry_equiv_pos_site_id
 _symmetry_equiv_pos_as_xyz
  1  'x, y, z'
loop_
 _atom_site_type_symbol
 _atom_site_label
 _atom_site_symmetry_multiplicity
 _atom_site_fract_x
 _atom_site_fract_y
 _atom_site_fract_z
 _atom_site_occupancy
  C  C0  1  0.00000000  0.00000000  0.00000000  1
  C  C1  1  0.00000000  0.00000000  0.25000000  1
  C  C2  1  0.00000000  0.00000000  0.50000000  1
  C  C3  1  0.00000000  0.00000000  0.75000000  1
  C  C4  1  0.00000000  0.50000000  0.00000000  1
  C  C5  1  0.00000000  0.50000000  0.25000000  1
  C  C6  1  0.00000000  0.50000000  0.50000000  1
  C  C7  1  0.00000000  0.50000000  0.75000000  1
  C  C8  1  0.50000000  0.00000000  0.00000000  1
  C  C9  1  0.50000000  0.00000000  0.25000000  1
  C  C10  1  0.50000000  0.00000000  0.50000000  1
  C  C11  1  0.50000000  0.00000000  0.75000000  1
  C  C12  1  0.50000000  0.50000000  0.00000000  1
  C  C13  1  0.50000000  0.50000000  0.25000000  1
  C  C14  1  0.50000000  0.50000000  0.50000000  1
  C  C15  1  0.50000000  0.50000000  0.75000000  1
  Al  Al16  1  0.16666667  0.33333333  0.37500000  1
  Al  Al17  1  0.33333333  0.16666667  0.12500000  1
  Al  Al18  1  0.16666667  0.33333333  0.87500000  1
  Al  Al19  1  0.33333333  0.16666667  0.62500000  1
  Al  Al20  1  0.16666667  0.83333333  0.37500000  1
  Al  Al21  1  0.33333333  0.66666667  0.12500000  1
  Al  Al22  1  0.16666667  0.83333333  0.87500000  1
  Al  Al23  1  0.33333333  0.66666667  0.62500000  1
  Al  Al24  1  0.66666667  0.33333333  0.37500000  1
  Al  Al25  1  0.83333333  0.16666667  0.12500000  1
  Al  Al26  1  0.66666667  0.33333333  0.87500000  1
  Al  Al27  1  0.83333333  0.16666667  0.62500000  1
  Al  Al28  1  0.66666667  0.83333333  0.37500000  1
  Al  Al29  1  0.83333333  0.66666667  0.12500000  1
  Al  Al30  1  0.66666667  0.83333333  0.87500000  1
  Al  Al31  1  0.83333333  0.66666667  0.62500000  1
  Cd  Cd32  1  0.16666667  0.33333333  0.20288722  1
  Cd  Cd33  1  0.33333333  0.16666667  0.45288722  1
  Cd  Cd34  1  0.33333333  0.16666667  0.29711278  1
  Cd  Cd35  1  0.16666667  0.33333333  0.04711278  1
  Cd  Cd36  1  0.16666667  0.33333333  0.70288722  1
  Cd  Cd37  1  0.33333333  0.16666667  0.95288722  1
  Cd  Cd38  1  0.33333333  0.16666667  0.79711278  1
  Cd  Cd39  1  0.16666667  0.33333333  0.54711278  1
  Cd  Cd40  1  0.16666667  0.83333333  0.20288722  1
  Cd  Cd41  1  0.33333333  0.66666667  0.45288722  1
  Cd  Cd42  1  0.33333333  0.66666667  0.29711278  1
  Cd  Cd43  1  0.16666667  0.83333333  0.04711278  1
  Cd  Cd44  1  0.16666667  0.83333333  0.70288722  1
  Cd  Cd45  1  0.33333333  0.66666667  0.95288722  1
  Cd  Cd46  1  0.33333333  0.66666667  0.79711278  1
  Cd  Cd47  1  0.16666667  0.83333333  0.54711278  1
  Cd  Cd48  1  0.66666667  0.33333333  0.20288722  1
  Cd  Cd49  1  0.83333333  0.16666667  0.45288722  1
  Cd  Cd50  1  0.83333333  0.16666667  0.29711278  1
  Cd  Cd51  1  0.66666667  0.33333333  0.04711278  1
  Cd  Cd52  1  0.66666667  0.33333333  0.70288722  1
  Cd  Cd53  1  0.83333333  0.16666667  0.95288722  1
  Cd  Cd54  1  0.83333333  0.16666667  0.79711278  1
  Cd  Cd55  1  0.66666667  0.33333333  0.54711278  1
  Cd  Cd56  1  0.66666667  0.83333333  0.20288722  1
  Cd  Cd57  1  0.83333333  0.66666667  0.45288722  1
  Cd  Cd58  1  0.83333333  0.66666667  0.29711278  1
  Cd  Cd59  1  0.66666667  0.83333333  0.04711278  1
  Cd  Cd60  1  0.66666667  0.83333333  0.70288722  1
  Cd  Cd61  1  0.83333333  0.66666667  0.95288722  1
  Cd  Cd62  1  0.83333333  0.66666667  0.79711278  1
  Cd  Cd63  1  0.66666667  0.83333333  0.54711278  1
