# generated using pymatgen
data_La2AlC
_symmetry_space_group_name_H-M   'P 1'
_cell_length_a   7.46344287
_cell_length_b   7.46344287
_cell_length_c   33.98735418
_cell_angle_alpha   90.00000000
_cell_angle_beta   90.00000000
_cell_angle_gamma   120.00000005
_symmetry_Int_Tables_number   1
_chemical_formula_structural   La2AlC
_chemical_formula_sum   'La32 Al16 C16'
_cell_volume   1639.55660176
_cell_formula_units_Z   16
loop_
 _symmetry_equiv_pos_site_id
 _symmetry_equiv_pos_as_xyz
  1  'x, y, z'
loop_
 _atom_site_type_symbol
 _atom_site_label
 _atom_site_symmetry_multiplicity
 _atom_site_fract_x
 _atom_site_fract_y
 _atom_site_fract_z
 _atom_site_occupancy
  C  C0  1  0.00000000  0.00000000  0.00000000  1
  C  C1  1  0.00000000  0.00000000  0.25000000  1
  C  C2  1  0.00000000  0.00000000  0.50000000  1
  C  C3  1  0.00000000  0.00000000  0.75000000  1
  C  C4  1  0.00000000  0.50000000  0.00000000  1
  C  C5  1  0.00000000  0.50000000  0.25000000  1
  C  C6  1  0.00000000  0.50000000  0.50000000  1
  C  C7  1  0.00000000  0.50000000  0.75000000  1
  C  C8  1  0.50000000  0.00000000  0.00000000  1
  C  C9  1  0.50000000  0.00000000  0.25000000  1
  C  C10  1  0.50000000  0.00000000  0.50000000  1
  C  C11  1  0.50000000  0.00000000  0.75000000  1
  C  C12  1  0.50000000  0.50000000  0.00000000  1
  C  C13  1  0.50000000  0.50000000  0.25000000  1
  C  C14  1  0.50000000  0.50000000  0.50000000  1
  C  C15  1  0.50000000  0.50000000  0.75000000  1
  Al  Al16  1  0.16666667  0.33333333  0.37500000  1
  Al  Al17  1  0.33333333  0.16666667  0.12500000  1
  Al  Al18  1  0.16666667  0.33333333  0.87500000  1
  Al  Al19  1  0.33333333  0.16666667  0.62500000  1
  Al  Al20  1  0.16666667  0.83333333  0.37500000  1
  Al  Al21  1  0.33333333  0.66666667  0.12500000  1
  Al  Al22  1  0.16666667  0.83333333  0.87500000  1
  Al  Al23  1  0.33333333  0.66666667  0.62500000  1
  Al  Al24  1  0.66666667  0.33333333  0.37500000  1
  Al  Al25  1  0.83333333  0.16666667  0.12500000  1
  Al  Al26  1  0.66666667  0.33333333  0.87500000  1
  Al  Al27  1  0.83333333  0.16666667  0.62500000  1
  Al  Al28  1  0.66666667  0.83333333  0.37500000  1
  Al  Al29  1  0.83333333  0.66666667  0.12500000  1
  Al  Al30  1  0.66666667  0.83333333  0.87500000  1
  Al  Al31  1  0.83333333  0.66666667  0.62500000  1
  La  La32  1  0.16666667  0.33333333  0.20622445  1
  La  La33  1  0.33333333  0.16666667  0.45622445  1
  La  La34  1  0.33333333  0.16666667  0.29377555  1
  La  La35  1  0.16666667  0.33333333  0.04377555  1
  La  La36  1  0.16666667  0.33333333  0.70622445  1
  La  La37  1  0.33333333  0.16666667  0.95622445  1
  La  La38  1  0.33333333  0.16666667  0.79377555  1
  La  La39  1  0.16666667  0.33333333  0.54377555  1
  La  La40  1  0.16666667  0.83333333  0.20622445  1
  La  La41  1  0.33333333  0.66666667  0.45622445  1
  La  La42  1  0.33333333  0.66666667  0.29377555  1
  La  La43  1  0.16666667  0.83333333  0.04377555  1
  La  La44  1  0.16666667  0.83333333  0.70622445  1
  La  La45  1  0.33333333  0.66666667  0.95622445  1
  La  La46  1  0.33333333  0.66666667  0.79377555  1
  La  La47  1  0.16666667  0.83333333  0.54377555  1
  La  La48  1  0.66666667  0.33333333  0.20622445  1
  La  La49  1  0.83333333  0.16666667  0.45622445  1
  La  La50  1  0.83333333  0.16666667  0.29377555  1
  La  La51  1  0.66666667  0.33333333  0.04377555  1
  La  La52  1  0.66666667  0.33333333  0.70622445  1
  La  La53  1  0.83333333  0.16666667  0.95622445  1
  La  La54  1  0.83333333  0.16666667  0.79377555  1
  La  La55  1  0.66666667  0.33333333  0.54377555  1
  La  La56  1  0.66666667  0.83333333  0.20622445  1
  La  La57  1  0.83333333  0.66666667  0.45622445  1
  La  La58  1  0.83333333  0.66666667  0.29377555  1
  La  La59  1  0.66666667  0.83333333  0.04377555  1
  La  La60  1  0.66666667  0.83333333  0.70622445  1
  La  La61  1  0.83333333  0.66666667  0.95622445  1
  La  La62  1  0.83333333  0.66666667  0.79377555  1
  La  La63  1  0.66666667  0.83333333  0.54377555  1
