# generated using pymatgen
data_Hf2AlC
_symmetry_space_group_name_H-M   'P 1'
_cell_length_a   6.55029844
_cell_length_b   6.55029844
_cell_length_c   28.76441424
_cell_angle_alpha   90.00000000
_cell_angle_beta   90.00000000
_cell_angle_gamma   120.00000001
_symmetry_Int_Tables_number   1
_chemical_formula_structural   Hf2AlC
_chemical_formula_sum   'Hf32 Al16 C16'
_cell_volume   1068.82927606
_cell_formula_units_Z   16
loop_
 _symmetry_equiv_pos_site_id
 _symmetry_equiv_pos_as_xyz
  1  'x, y, z'
loop_
 _atom_site_type_symbol
 _atom_site_label
 _atom_site_symmetry_multiplicity
 _atom_site_fract_x
 _atom_site_fract_y
 _atom_site_fract_z
 _atom_site_occupancy
  C  C0  1  0.00000000  0.00000000  0.00000000  1
  C  C1  1  0.00000000  0.00000000  0.25000000  1
  C  C2  1  0.00000000  0.00000000  0.50000000  1
  C  C3  1  0.00000000  0.00000000  0.75000000  1
  C  C4  1  0.00000000  0.50000000  0.00000000  1
  C  C5  1  0.00000000  0.50000000  0.25000000  1
  C  C6  1  0.00000000  0.50000000  0.50000000  1
  C  C7  1  0.00000000  0.50000000  0.75000000  1
  C  C8  1  0.50000000  0.00000000  0.00000000  1
  C  C9  1  0.50000000  0.00000000  0.25000000  1
  C  C10  1  0.50000000  0.00000000  0.50000000  1
  C  C11  1  0.50000000  0.00000000  0.75000000  1
  C  C12  1  0.50000000  0.50000000  0.00000000  1
  C  C13  1  0.50000000  0.50000000  0.25000000  1
  C  C14  1  0.50000000  0.50000000  0.50000000  1
  C  C15  1  0.50000000  0.50000000  0.75000000  1
  Al  Al16  1  0.16666667  0.33333333  0.37500000  1
  Al  Al17  1  0.33333333  0.16666667  0.12500000  1
  Al  Al18  1  0.16666667  0.33333333  0.87500000  1
  Al  Al19  1  0.33333333  0.16666667  0.62500000  1
  Al  Al20  1  0.16666667  0.83333333  0.37500000  1
  Al  Al21  1  0.33333333  0.66666667  0.12500000  1
  Al  Al22  1  0.16666667  0.83333333  0.87500000  1
  Al  Al23  1  0.33333333  0.66666667  0.62500000  1
  Al  Al24  1  0.66666667  0.33333333  0.37500000  1
  Al  Al25  1  0.83333333  0.16666667  0.12500000  1
  Al  Al26  1  0.66666667  0.33333333  0.87500000  1
  Al  Al27  1  0.83333333  0.16666667  0.62500000  1
  Al  Al28  1  0.66666667  0.83333333  0.37500000  1
  Al  Al29  1  0.83333333  0.66666667  0.12500000  1
  Al  Al30  1  0.66666667  0.83333333  0.87500000  1
  Al  Al31  1  0.83333333  0.66666667  0.62500000  1
  Hf  Hf32  1  0.16666667  0.33333333  0.20659590  1
  Hf  Hf33  1  0.33333333  0.16666667  0.45659590  1
  Hf  Hf34  1  0.33333333  0.16666667  0.29340410  1
  Hf  Hf35  1  0.16666667  0.33333333  0.04340410  1
  Hf  Hf36  1  0.16666667  0.33333333  0.70659590  1
  Hf  Hf37  1  0.33333333  0.16666667  0.95659590  1
  Hf  Hf38  1  0.33333333  0.16666667  0.79340410  1
  Hf  Hf39  1  0.16666667  0.33333333  0.54340410  1
  Hf  Hf40  1  0.16666667  0.83333333  0.20659590  1
  Hf  Hf41  1  0.33333333  0.66666667  0.45659590  1
  Hf  Hf42  1  0.33333333  0.66666667  0.29340410  1
  Hf  Hf43  1  0.16666667  0.83333333  0.04340410  1
  Hf  Hf44  1  0.16666667  0.83333333  0.70659590  1
  Hf  Hf45  1  0.33333333  0.66666667  0.95659590  1
  Hf  Hf46  1  0.33333333  0.66666667  0.79340410  1
  Hf  Hf47  1  0.16666667  0.83333333  0.54340410  1
  Hf  Hf48  1  0.66666667  0.33333333  0.20659590  1
  Hf  Hf49  1  0.83333333  0.16666667  0.45659590  1
  Hf  Hf50  1  0.83333333  0.16666667  0.29340410  1
  Hf  Hf51  1  0.66666667  0.33333333  0.04340410  1
  Hf  Hf52  1  0.66666667  0.33333333  0.70659590  1
  Hf  Hf53  1  0.83333333  0.16666667  0.95659590  1
  Hf  Hf54  1  0.83333333  0.16666667  0.79340410  1
  Hf  Hf55  1  0.66666667  0.33333333  0.54340410  1
  Hf  Hf56  1  0.66666667  0.83333333  0.20659590  1
  Hf  Hf57  1  0.83333333  0.66666667  0.45659590  1
  Hf  Hf58  1  0.83333333  0.66666667  0.29340410  1
  Hf  Hf59  1  0.66666667  0.83333333  0.04340410  1
  Hf  Hf60  1  0.66666667  0.83333333  0.70659590  1
  Hf  Hf61  1  0.83333333  0.66666667  0.95659590  1
  Hf  Hf62  1  0.83333333  0.66666667  0.79340410  1
  Hf  Hf63  1  0.66666667  0.83333333  0.54340410  1
