# generated using pymatgen
data_AlAu2C
_symmetry_space_group_name_H-M   'P 1'
_cell_length_a   7.10954269
_cell_length_b   7.10954268
_cell_length_c   22.62357077
_cell_angle_alpha   90.00000000
_cell_angle_beta   90.00000000
_cell_angle_gamma   120.00000000
_symmetry_Int_Tables_number   1
_chemical_formula_structural   AlAu2C
_chemical_formula_sum   'Al16 Au32 C16'
_cell_volume   990.31901094
_cell_formula_units_Z   16
loop_
 _symmetry_equiv_pos_site_id
 _symmetry_equiv_pos_as_xyz
  1  'x, y, z'
loop_
 _atom_site_type_symbol
 _atom_site_label
 _atom_site_symmetry_multiplicity
 _atom_site_fract_x
 _atom_site_fract_y
 _atom_site_fract_z
 _atom_site_occupancy
  C  C0  1  0.00000000  0.00000000  0.00000000  1
  C  C1  1  0.00000000  0.00000000  0.25000000  1
  C  C2  1  0.00000000  0.00000000  0.50000000  1
  C  C3  1  0.00000000  0.00000000  0.75000000  1
  C  C4  1  0.00000000  0.50000000  0.00000000  1
  C  C5  1  0.00000000  0.50000000  0.25000000  1
  C  C6  1  0.00000000  0.50000000  0.50000000  1
  C  C7  1  0.00000000  0.50000000  0.75000000  1
  C  C8  1  0.50000000  0.00000000  0.00000000  1
  C  C9  1  0.50000000  0.00000000  0.25000000  1
  C  C10  1  0.50000000  0.00000000  0.50000000  1
  C  C11  1  0.50000000  0.00000000  0.75000000  1
  C  C12  1  0.50000000  0.50000000  0.00000000  1
  C  C13  1  0.50000000  0.50000000  0.25000000  1
  C  C14  1  0.50000000  0.50000000  0.50000000  1
  C  C15  1  0.50000000  0.50000000  0.75000000  1
  Al  Al16  1  0.16666667  0.33333333  0.37500000  1
  Al  Al17  1  0.33333333  0.16666667  0.12500000  1
  Al  Al18  1  0.16666667  0.33333333  0.87500000  1
  Al  Al19  1  0.33333333  0.16666667  0.62500000  1
  Al  Al20  1  0.16666667  0.83333333  0.37500000  1
  Al  Al21  1  0.33333333  0.66666667  0.12500000  1
  Al  Al22  1  0.16666667  0.83333333  0.87500000  1
  Al  Al23  1  0.33333333  0.66666667  0.62500000  1
  Al  Al24  1  0.66666667  0.33333333  0.37500000  1
  Al  Al25  1  0.83333333  0.16666667  0.12500000  1
  Al  Al26  1  0.66666667  0.33333333  0.87500000  1
  Al  Al27  1  0.83333333  0.16666667  0.62500000  1
  Al  Al28  1  0.66666667  0.83333333  0.37500000  1
  Al  Al29  1  0.83333333  0.66666667  0.12500000  1
  Al  Al30  1  0.66666667  0.83333333  0.87500000  1
  Al  Al31  1  0.83333333  0.66666667  0.62500000  1
  Au  Au32  1  0.16666667  0.33333333  0.19551087  1
  Au  Au33  1  0.33333333  0.16666667  0.44551087  1
  Au  Au34  1  0.33333333  0.16666667  0.30448913  1
  Au  Au35  1  0.16666667  0.33333333  0.05448913  1
  Au  Au36  1  0.16666667  0.33333333  0.69551087  1
  Au  Au37  1  0.33333333  0.16666667  0.94551087  1
  Au  Au38  1  0.33333333  0.16666667  0.80448913  1
  Au  Au39  1  0.16666667  0.33333333  0.55448913  1
  Au  Au40  1  0.16666667  0.83333333  0.19551087  1
  Au  Au41  1  0.33333333  0.66666667  0.44551087  1
  Au  Au42  1  0.33333333  0.66666667  0.30448913  1
  Au  Au43  1  0.16666667  0.83333333  0.05448913  1
  Au  Au44  1  0.16666667  0.83333333  0.69551087  1
  Au  Au45  1  0.33333333  0.66666667  0.94551087  1
  Au  Au46  1  0.33333333  0.66666667  0.80448913  1
  Au  Au47  1  0.16666667  0.83333333  0.55448913  1
  Au  Au48  1  0.66666667  0.33333333  0.19551087  1
  Au  Au49  1  0.83333333  0.16666667  0.44551087  1
  Au  Au50  1  0.83333333  0.16666667  0.30448913  1
  Au  Au51  1  0.66666667  0.33333333  0.05448913  1
  Au  Au52  1  0.66666667  0.33333333  0.69551087  1
  Au  Au53  1  0.83333333  0.16666667  0.94551087  1
  Au  Au54  1  0.83333333  0.16666667  0.80448913  1
  Au  Au55  1  0.66666667  0.33333333  0.55448913  1
  Au  Au56  1  0.66666667  0.83333333  0.19551087  1
  Au  Au57  1  0.83333333  0.66666667  0.44551087  1
  Au  Au58  1  0.83333333  0.66666667  0.30448913  1
  Au  Au59  1  0.66666667  0.83333333  0.05448913  1
  Au  Au60  1  0.66666667  0.83333333  0.69551087  1
  Au  Au61  1  0.83333333  0.66666667  0.94551087  1
  Au  Au62  1  0.83333333  0.66666667  0.80448913  1
  Au  Au63  1  0.66666667  0.83333333  0.55448913  1
