# generated using pymatgen
data_Nb2AlC
_symmetry_space_group_name_H-M   'P 1'
_cell_length_a   6.23811873
_cell_length_b   6.23811873
_cell_length_c   27.85206145
_cell_angle_alpha   90.00000000
_cell_angle_beta   90.00000000
_cell_angle_gamma   119.99999997
_symmetry_Int_Tables_number   1
_chemical_formula_structural   Nb2AlC
_chemical_formula_sum   'Nb32 Al16 C16'
_cell_volume   938.63176851
_cell_formula_units_Z   16
loop_
 _symmetry_equiv_pos_site_id
 _symmetry_equiv_pos_as_xyz
  1  'x, y, z'
loop_
 _atom_site_type_symbol
 _atom_site_label
 _atom_site_symmetry_multiplicity
 _atom_site_fract_x
 _atom_site_fract_y
 _atom_site_fract_z
 _atom_site_occupancy
  C  C0  1  0.00000000  -0.00000000  -0.00000000  1
  C  C1  1  0.00000000  -0.00000000  0.25000000  1
  C  C2  1  0.00000000  -0.00000000  0.50000000  1
  C  C3  1  0.00000000  -0.00000000  0.75000000  1
  C  C4  1  0.00000000  0.50000000  -0.00000000  1
  C  C5  1  0.00000000  0.50000000  0.25000000  1
  C  C6  1  0.00000000  0.50000000  0.50000000  1
  C  C7  1  0.00000000  0.50000000  0.75000000  1
  C  C8  1  0.50000000  -0.00000000  -0.00000000  1
  C  C9  1  0.50000000  -0.00000000  0.25000000  1
  C  C10  1  0.50000000  -0.00000000  0.50000000  1
  C  C11  1  0.50000000  -0.00000000  0.75000000  1
  C  C12  1  0.50000000  0.50000000  -0.00000000  1
  C  C13  1  0.50000000  0.50000000  0.25000000  1
  C  C14  1  0.50000000  0.50000000  0.50000000  1
  C  C15  1  0.50000000  0.50000000  0.75000000  1
  Al  Al16  1  0.16666667  0.33333333  0.37500000  1
  Al  Al17  1  0.33333333  0.16666667  0.12500000  1
  Al  Al18  1  0.16666667  0.33333333  0.87500000  1
  Al  Al19  1  0.33333333  0.16666667  0.62500000  1
  Al  Al20  1  0.16666667  0.83333333  0.37500000  1
  Al  Al21  1  0.33333333  0.66666667  0.12500000  1
  Al  Al22  1  0.16666667  0.83333333  0.87500000  1
  Al  Al23  1  0.33333333  0.66666667  0.62500000  1
  Al  Al24  1  0.66666667  0.33333333  0.37500000  1
  Al  Al25  1  0.83333333  0.16666667  0.12500000  1
  Al  Al26  1  0.66666667  0.33333333  0.87500000  1
  Al  Al27  1  0.83333333  0.16666667  0.62500000  1
  Al  Al28  1  0.66666667  0.83333333  0.37500000  1
  Al  Al29  1  0.83333333  0.66666667  0.12500000  1
  Al  Al30  1  0.66666667  0.83333333  0.87500000  1
  Al  Al31  1  0.83333333  0.66666667  0.62500000  1
  Nb  Nb32  1  0.16666667  0.33333333  0.20577497  1
  Nb  Nb33  1  0.33333333  0.16666667  0.45577497  1
  Nb  Nb34  1  0.33333333  0.16666667  0.29422503  1
  Nb  Nb35  1  0.16666667  0.33333333  0.04422503  1
  Nb  Nb36  1  0.16666667  0.33333333  0.70577497  1
  Nb  Nb37  1  0.33333333  0.16666667  0.95577497  1
  Nb  Nb38  1  0.33333333  0.16666667  0.79422503  1
  Nb  Nb39  1  0.16666667  0.33333333  0.54422503  1
  Nb  Nb40  1  0.16666667  0.83333333  0.20577497  1
  Nb  Nb41  1  0.33333333  0.66666667  0.45577497  1
  Nb  Nb42  1  0.33333333  0.66666667  0.29422503  1
  Nb  Nb43  1  0.16666667  0.83333333  0.04422503  1
  Nb  Nb44  1  0.16666667  0.83333333  0.70577497  1
  Nb  Nb45  1  0.33333333  0.66666667  0.95577497  1
  Nb  Nb46  1  0.33333333  0.66666667  0.79422503  1
  Nb  Nb47  1  0.16666667  0.83333333  0.54422503  1
  Nb  Nb48  1  0.66666667  0.33333333  0.20577497  1
  Nb  Nb49  1  0.83333333  0.16666667  0.45577497  1
  Nb  Nb50  1  0.83333333  0.16666667  0.29422503  1
  Nb  Nb51  1  0.66666667  0.33333333  0.04422503  1
  Nb  Nb52  1  0.66666667  0.33333333  0.70577497  1
  Nb  Nb53  1  0.83333333  0.16666667  0.95577497  1
  Nb  Nb54  1  0.83333333  0.16666667  0.79422503  1
  Nb  Nb55  1  0.66666667  0.33333333  0.54422503  1
  Nb  Nb56  1  0.66666667  0.83333333  0.20577497  1
  Nb  Nb57  1  0.83333333  0.66666667  0.45577497  1
  Nb  Nb58  1  0.83333333  0.66666667  0.29422503  1
  Nb  Nb59  1  0.66666667  0.83333333  0.04422503  1
  Nb  Nb60  1  0.66666667  0.83333333  0.70577497  1
  Nb  Nb61  1  0.83333333  0.66666667  0.95577497  1
  Nb  Nb62  1  0.83333333  0.66666667  0.79422503  1
  Nb  Nb63  1  0.66666667  0.83333333  0.54422503  1
