# generated using pymatgen
data_AlPd2C
_symmetry_space_group_name_H-M   'P 1'
_cell_length_a   6.20061140
_cell_length_b   6.20061140
_cell_length_c   25.83881974
_cell_angle_alpha   90.00000000
_cell_angle_beta   90.00000000
_cell_angle_gamma   120.00000001
_symmetry_Int_Tables_number   1
_chemical_formula_structural   AlPd2C
_chemical_formula_sum   'Al16 Pd32 C16'
_cell_volume   860.34439284
_cell_formula_units_Z   16
loop_
 _symmetry_equiv_pos_site_id
 _symmetry_equiv_pos_as_xyz
  1  'x, y, z'
loop_
 _atom_site_type_symbol
 _atom_site_label
 _atom_site_symmetry_multiplicity
 _atom_site_fract_x
 _atom_site_fract_y
 _atom_site_fract_z
 _atom_site_occupancy
  C  C0  1  -0.00000000  -0.00000000  -0.00000000  1
  C  C1  1  -0.00000000  -0.00000000  0.25000000  1
  C  C2  1  -0.00000000  -0.00000000  0.50000000  1
  C  C3  1  -0.00000000  -0.00000000  0.75000000  1
  C  C4  1  -0.00000000  0.50000000  -0.00000000  1
  C  C5  1  -0.00000000  0.50000000  0.25000000  1
  C  C6  1  -0.00000000  0.50000000  0.50000000  1
  C  C7  1  -0.00000000  0.50000000  0.75000000  1
  C  C8  1  0.50000000  -0.00000000  -0.00000000  1
  C  C9  1  0.50000000  -0.00000000  0.25000000  1
  C  C10  1  0.50000000  -0.00000000  0.50000000  1
  C  C11  1  0.50000000  -0.00000000  0.75000000  1
  C  C12  1  0.50000000  0.50000000  -0.00000000  1
  C  C13  1  0.50000000  0.50000000  0.25000000  1
  C  C14  1  0.50000000  0.50000000  0.50000000  1
  C  C15  1  0.50000000  0.50000000  0.75000000  1
  Al  Al16  1  0.16666667  0.33333333  0.37500000  1
  Al  Al17  1  0.33333333  0.16666667  0.12500000  1
  Al  Al18  1  0.16666667  0.33333333  0.87500000  1
  Al  Al19  1  0.33333333  0.16666667  0.62500000  1
  Al  Al20  1  0.16666667  0.83333333  0.37500000  1
  Al  Al21  1  0.33333333  0.66666667  0.12500000  1
  Al  Al22  1  0.16666667  0.83333333  0.87500000  1
  Al  Al23  1  0.33333333  0.66666667  0.62500000  1
  Al  Al24  1  0.66666667  0.33333333  0.37500000  1
  Al  Al25  1  0.83333333  0.16666667  0.12500000  1
  Al  Al26  1  0.66666667  0.33333333  0.87500000  1
  Al  Al27  1  0.83333333  0.16666667  0.62500000  1
  Al  Al28  1  0.66666667  0.83333333  0.37500000  1
  Al  Al29  1  0.83333333  0.66666667  0.12500000  1
  Al  Al30  1  0.66666667  0.83333333  0.87500000  1
  Al  Al31  1  0.83333333  0.66666667  0.62500000  1
  Pd  Pd32  1  0.16666667  0.33333333  0.20263220  1
  Pd  Pd33  1  0.33333333  0.16666667  0.45263220  1
  Pd  Pd34  1  0.33333333  0.16666667  0.29736780  1
  Pd  Pd35  1  0.16666667  0.33333333  0.04736780  1
  Pd  Pd36  1  0.16666667  0.33333333  0.70263220  1
  Pd  Pd37  1  0.33333333  0.16666667  0.95263220  1
  Pd  Pd38  1  0.33333333  0.16666667  0.79736780  1
  Pd  Pd39  1  0.16666667  0.33333333  0.54736780  1
  Pd  Pd40  1  0.16666667  0.83333333  0.20263220  1
  Pd  Pd41  1  0.33333333  0.66666667  0.45263220  1
  Pd  Pd42  1  0.33333333  0.66666667  0.29736780  1
  Pd  Pd43  1  0.16666667  0.83333333  0.04736780  1
  Pd  Pd44  1  0.16666667  0.83333333  0.70263220  1
  Pd  Pd45  1  0.33333333  0.66666667  0.95263220  1
  Pd  Pd46  1  0.33333333  0.66666667  0.79736780  1
  Pd  Pd47  1  0.16666667  0.83333333  0.54736780  1
  Pd  Pd48  1  0.66666667  0.33333333  0.20263220  1
  Pd  Pd49  1  0.83333333  0.16666667  0.45263220  1
  Pd  Pd50  1  0.83333333  0.16666667  0.29736780  1
  Pd  Pd51  1  0.66666667  0.33333333  0.04736780  1
  Pd  Pd52  1  0.66666667  0.33333333  0.70263220  1
  Pd  Pd53  1  0.83333333  0.16666667  0.95263220  1
  Pd  Pd54  1  0.83333333  0.16666667  0.79736780  1
  Pd  Pd55  1  0.66666667  0.33333333  0.54736780  1
  Pd  Pd56  1  0.66666667  0.83333333  0.20263220  1
  Pd  Pd57  1  0.83333333  0.66666667  0.45263220  1
  Pd  Pd58  1  0.83333333  0.66666667  0.29736780  1
  Pd  Pd59  1  0.66666667  0.83333333  0.04736780  1
  Pd  Pd60  1  0.66666667  0.83333333  0.70263220  1
  Pd  Pd61  1  0.83333333  0.66666667  0.95263220  1
  Pd  Pd62  1  0.83333333  0.66666667  0.79736780  1
  Pd  Pd63  1  0.66666667  0.83333333  0.54736780  1
