# generated using pymatgen
data_Ta2AlC
_symmetry_space_group_name_H-M   'P 1'
_cell_length_a   6.20033642
_cell_length_b   6.20033642
_cell_length_c   27.90028584
_cell_angle_alpha   90.00000000
_cell_angle_beta   90.00000000
_cell_angle_gamma   120.00000001
_symmetry_Int_Tables_number   1
_chemical_formula_structural   Ta2AlC
_chemical_formula_sum   'Ta32 Al16 C16'
_cell_volume   928.90177488
_cell_formula_units_Z   16
loop_
 _symmetry_equiv_pos_site_id
 _symmetry_equiv_pos_as_xyz
  1  'x, y, z'
loop_
 _atom_site_type_symbol
 _atom_site_label
 _atom_site_symmetry_multiplicity
 _atom_site_fract_x
 _atom_site_fract_y
 _atom_site_fract_z
 _atom_site_occupancy
  C  C0  1  -0.00000000  -0.00000000  -0.00000000  1
  C  C1  1  -0.00000000  -0.00000000  0.25000000  1
  C  C2  1  -0.00000000  -0.00000000  0.50000000  1
  C  C3  1  -0.00000000  -0.00000000  0.75000000  1
  C  C4  1  -0.00000000  0.50000000  -0.00000000  1
  C  C5  1  -0.00000000  0.50000000  0.25000000  1
  C  C6  1  -0.00000000  0.50000000  0.50000000  1
  C  C7  1  -0.00000000  0.50000000  0.75000000  1
  C  C8  1  0.50000000  -0.00000000  -0.00000000  1
  C  C9  1  0.50000000  -0.00000000  0.25000000  1
  C  C10  1  0.50000000  -0.00000000  0.50000000  1
  C  C11  1  0.50000000  -0.00000000  0.75000000  1
  C  C12  1  0.50000000  0.50000000  -0.00000000  1
  C  C13  1  0.50000000  0.50000000  0.25000000  1
  C  C14  1  0.50000000  0.50000000  0.50000000  1
  C  C15  1  0.50000000  0.50000000  0.75000000  1
  Al  Al16  1  0.16666667  0.33333333  0.37500000  1
  Al  Al17  1  0.33333333  0.16666667  0.12500000  1
  Al  Al18  1  0.16666667  0.33333333  0.87500000  1
  Al  Al19  1  0.33333333  0.16666667  0.62500000  1
  Al  Al20  1  0.16666667  0.83333333  0.37500000  1
  Al  Al21  1  0.33333333  0.66666667  0.12500000  1
  Al  Al22  1  0.16666667  0.83333333  0.87500000  1
  Al  Al23  1  0.33333333  0.66666667  0.62500000  1
  Al  Al24  1  0.66666667  0.33333333  0.37500000  1
  Al  Al25  1  0.83333333  0.16666667  0.12500000  1
  Al  Al26  1  0.66666667  0.33333333  0.87500000  1
  Al  Al27  1  0.83333333  0.16666667  0.62500000  1
  Al  Al28  1  0.66666667  0.83333333  0.37500000  1
  Al  Al29  1  0.83333333  0.66666667  0.12500000  1
  Al  Al30  1  0.66666667  0.83333333  0.87500000  1
  Al  Al31  1  0.83333333  0.66666667  0.62500000  1
  Ta  Ta32  1  0.16666667  0.33333333  0.20512675  1
  Ta  Ta33  1  0.33333333  0.16666667  0.45512675  1
  Ta  Ta34  1  0.33333333  0.16666667  0.29487325  1
  Ta  Ta35  1  0.16666667  0.33333333  0.04487325  1
  Ta  Ta36  1  0.16666667  0.33333333  0.70512675  1
  Ta  Ta37  1  0.33333333  0.16666667  0.95512675  1
  Ta  Ta38  1  0.33333333  0.16666667  0.79487325  1
  Ta  Ta39  1  0.16666667  0.33333333  0.54487325  1
  Ta  Ta40  1  0.16666667  0.83333333  0.20512675  1
  Ta  Ta41  1  0.33333333  0.66666667  0.45512675  1
  Ta  Ta42  1  0.33333333  0.66666667  0.29487325  1
  Ta  Ta43  1  0.16666667  0.83333333  0.04487325  1
  Ta  Ta44  1  0.16666667  0.83333333  0.70512675  1
  Ta  Ta45  1  0.33333333  0.66666667  0.95512675  1
  Ta  Ta46  1  0.33333333  0.66666667  0.79487325  1
  Ta  Ta47  1  0.16666667  0.83333333  0.54487325  1
  Ta  Ta48  1  0.66666667  0.33333333  0.20512675  1
  Ta  Ta49  1  0.83333333  0.16666667  0.45512675  1
  Ta  Ta50  1  0.83333333  0.16666667  0.29487325  1
  Ta  Ta51  1  0.66666667  0.33333333  0.04487325  1
  Ta  Ta52  1  0.66666667  0.33333333  0.70512675  1
  Ta  Ta53  1  0.83333333  0.16666667  0.95512675  1
  Ta  Ta54  1  0.83333333  0.16666667  0.79487325  1
  Ta  Ta55  1  0.66666667  0.33333333  0.54487325  1
  Ta  Ta56  1  0.66666667  0.83333333  0.20512675  1
  Ta  Ta57  1  0.83333333  0.66666667  0.45512675  1
  Ta  Ta58  1  0.83333333  0.66666667  0.29487325  1
  Ta  Ta59  1  0.66666667  0.83333333  0.04487325  1
  Ta  Ta60  1  0.66666667  0.83333333  0.70512675  1
  Ta  Ta61  1  0.83333333  0.66666667  0.95512675  1
  Ta  Ta62  1  0.83333333  0.66666667  0.79487325  1
  Ta  Ta63  1  0.66666667  0.83333333  0.54487325  1
