# generated using pymatgen
data_AlW2C
_symmetry_space_group_name_H-M   'P 1'
_cell_length_a   6.00576277
_cell_length_b   6.00576276
_cell_length_c   27.47220936
_cell_angle_alpha   90.00000000
_cell_angle_beta   90.00000000
_cell_angle_gamma   120.00000000
_symmetry_Int_Tables_number   1
_chemical_formula_structural   AlW2C
_chemical_formula_sum   'Al16 W32 C16'
_cell_volume   858.14478052
_cell_formula_units_Z   16
loop_
 _symmetry_equiv_pos_site_id
 _symmetry_equiv_pos_as_xyz
  1  'x, y, z'
loop_
 _atom_site_type_symbol
 _atom_site_label
 _atom_site_symmetry_multiplicity
 _atom_site_fract_x
 _atom_site_fract_y
 _atom_site_fract_z
 _atom_site_occupancy
  C  C0  1  0.00000000  0.00000000  0.00000000  1
  C  C1  1  0.00000000  0.00000000  0.25000000  1
  C  C2  1  0.00000000  0.00000000  0.50000000  1
  C  C3  1  0.00000000  0.00000000  0.75000000  1
  C  C4  1  0.00000000  0.50000000  0.00000000  1
  C  C5  1  0.00000000  0.50000000  0.25000000  1
  C  C6  1  0.00000000  0.50000000  0.50000000  1
  C  C7  1  0.00000000  0.50000000  0.75000000  1
  C  C8  1  0.50000000  0.00000000  0.00000000  1
  C  C9  1  0.50000000  0.00000000  0.25000000  1
  C  C10  1  0.50000000  0.00000000  0.50000000  1
  C  C11  1  0.50000000  0.00000000  0.75000000  1
  C  C12  1  0.50000000  0.50000000  0.00000000  1
  C  C13  1  0.50000000  0.50000000  0.25000000  1
  C  C14  1  0.50000000  0.50000000  0.50000000  1
  C  C15  1  0.50000000  0.50000000  0.75000000  1
  Al  Al16  1  0.16666667  0.33333333  0.37500000  1
  Al  Al17  1  0.33333333  0.16666667  0.12500000  1
  Al  Al18  1  0.16666667  0.33333333  0.87500000  1
  Al  Al19  1  0.33333333  0.16666667  0.62500000  1
  Al  Al20  1  0.16666667  0.83333333  0.37500000  1
  Al  Al21  1  0.33333333  0.66666667  0.12500000  1
  Al  Al22  1  0.16666667  0.83333333  0.87500000  1
  Al  Al23  1  0.33333333  0.66666667  0.62500000  1
  Al  Al24  1  0.66666667  0.33333333  0.37500000  1
  Al  Al25  1  0.83333333  0.16666667  0.12500000  1
  Al  Al26  1  0.66666667  0.33333333  0.87500000  1
  Al  Al27  1  0.83333333  0.16666667  0.62500000  1
  Al  Al28  1  0.66666667  0.83333333  0.37500000  1
  Al  Al29  1  0.83333333  0.66666667  0.12500000  1
  Al  Al30  1  0.66666667  0.83333333  0.87500000  1
  Al  Al31  1  0.83333333  0.66666667  0.62500000  1
  W  W32  1  0.16666667  0.33333333  0.20482523  1
  W  W33  1  0.33333333  0.16666667  0.45482523  1
  W  W34  1  0.33333333  0.16666667  0.29517477  1
  W  W35  1  0.16666667  0.33333333  0.04517477  1
  W  W36  1  0.16666667  0.33333333  0.70482523  1
  W  W37  1  0.33333333  0.16666667  0.95482523  1
  W  W38  1  0.33333333  0.16666667  0.79517477  1
  W  W39  1  0.16666667  0.33333333  0.54517477  1
  W  W40  1  0.16666667  0.83333333  0.20482523  1
  W  W41  1  0.33333333  0.66666667  0.45482523  1
  W  W42  1  0.33333333  0.66666667  0.29517477  1
  W  W43  1  0.16666667  0.83333333  0.04517477  1
  W  W44  1  0.16666667  0.83333333  0.70482523  1
  W  W45  1  0.33333333  0.66666667  0.95482523  1
  W  W46  1  0.33333333  0.66666667  0.79517477  1
  W  W47  1  0.16666667  0.83333333  0.54517477  1
  W  W48  1  0.66666667  0.33333333  0.20482523  1
  W  W49  1  0.83333333  0.16666667  0.45482523  1
  W  W50  1  0.83333333  0.16666667  0.29517477  1
  W  W51  1  0.66666667  0.33333333  0.04517477  1
  W  W52  1  0.66666667  0.33333333  0.70482523  1
  W  W53  1  0.83333333  0.16666667  0.95482523  1
  W  W54  1  0.83333333  0.16666667  0.79517477  1
  W  W55  1  0.66666667  0.33333333  0.54517477  1
  W  W56  1  0.66666667  0.83333333  0.20482523  1
  W  W57  1  0.83333333  0.66666667  0.45482523  1
  W  W58  1  0.83333333  0.66666667  0.29517477  1
  W  W59  1  0.66666667  0.83333333  0.04517477  1
  W  W60  1  0.66666667  0.83333333  0.70482523  1
  W  W61  1  0.83333333  0.66666667  0.95482523  1
  W  W62  1  0.83333333  0.66666667  0.79517477  1
  W  W63  1  0.66666667  0.83333333  0.54517477  1
