# generated using pymatgen
data_AlPt2C
_symmetry_space_group_name_H-M   'P 1'
_cell_length_a   6.34103704
_cell_length_b   6.34103704
_cell_length_c   25.25567567
_cell_angle_alpha   90.00000000
_cell_angle_beta   90.00000000
_cell_angle_gamma   120.00000001
_symmetry_Int_Tables_number   1
_chemical_formula_structural   AlPt2C
_chemical_formula_sum   'Al16 Pt32 C16'
_cell_volume   879.44807641
_cell_formula_units_Z   16
loop_
 _symmetry_equiv_pos_site_id
 _symmetry_equiv_pos_as_xyz
  1  'x, y, z'
loop_
 _atom_site_type_symbol
 _atom_site_label
 _atom_site_symmetry_multiplicity
 _atom_site_fract_x
 _atom_site_fract_y
 _atom_site_fract_z
 _atom_site_occupancy
  C  C0  1  0.00000000  0.00000000  0.00000000  1
  C  C1  1  0.00000000  0.00000000  0.25000000  1
  C  C2  1  0.00000000  0.00000000  0.50000000  1
  C  C3  1  0.00000000  0.00000000  0.75000000  1
  C  C4  1  0.00000000  0.50000000  0.00000000  1
  C  C5  1  0.00000000  0.50000000  0.25000000  1
  C  C6  1  0.00000000  0.50000000  0.50000000  1
  C  C7  1  0.00000000  0.50000000  0.75000000  1
  C  C8  1  0.50000000  0.00000000  0.00000000  1
  C  C9  1  0.50000000  0.00000000  0.25000000  1
  C  C10  1  0.50000000  0.00000000  0.50000000  1
  C  C11  1  0.50000000  0.00000000  0.75000000  1
  C  C12  1  0.50000000  0.50000000  0.00000000  1
  C  C13  1  0.50000000  0.50000000  0.25000000  1
  C  C14  1  0.50000000  0.50000000  0.50000000  1
  C  C15  1  0.50000000  0.50000000  0.75000000  1
  Al  Al16  1  0.16666667  0.33333333  0.37500000  1
  Al  Al17  1  0.33333333  0.16666667  0.12500000  1
  Al  Al18  1  0.16666667  0.33333333  0.87500000  1
  Al  Al19  1  0.33333333  0.16666667  0.62500000  1
  Al  Al20  1  0.16666667  0.83333333  0.37500000  1
  Al  Al21  1  0.33333333  0.66666667  0.12500000  1
  Al  Al22  1  0.16666667  0.83333333  0.87500000  1
  Al  Al23  1  0.33333333  0.66666667  0.62500000  1
  Al  Al24  1  0.66666667  0.33333333  0.37500000  1
  Al  Al25  1  0.83333333  0.16666667  0.12500000  1
  Al  Al26  1  0.66666667  0.33333333  0.87500000  1
  Al  Al27  1  0.83333333  0.16666667  0.62500000  1
  Al  Al28  1  0.66666667  0.83333333  0.37500000  1
  Al  Al29  1  0.83333333  0.66666667  0.12500000  1
  Al  Al30  1  0.66666667  0.83333333  0.87500000  1
  Al  Al31  1  0.83333333  0.66666667  0.62500000  1
  Pt  Pt32  1  0.16666667  0.33333333  0.20109633  1
  Pt  Pt33  1  0.33333333  0.16666667  0.45109633  1
  Pt  Pt34  1  0.33333333  0.16666667  0.29890367  1
  Pt  Pt35  1  0.16666667  0.33333333  0.04890367  1
  Pt  Pt36  1  0.16666667  0.33333333  0.70109633  1
  Pt  Pt37  1  0.33333333  0.16666667  0.95109633  1
  Pt  Pt38  1  0.33333333  0.16666667  0.79890367  1
  Pt  Pt39  1  0.16666667  0.33333333  0.54890367  1
  Pt  Pt40  1  0.16666667  0.83333333  0.20109633  1
  Pt  Pt41  1  0.33333333  0.66666667  0.45109633  1
  Pt  Pt42  1  0.33333333  0.66666667  0.29890367  1
  Pt  Pt43  1  0.16666667  0.83333333  0.04890367  1
  Pt  Pt44  1  0.16666667  0.83333333  0.70109633  1
  Pt  Pt45  1  0.33333333  0.66666667  0.95109633  1
  Pt  Pt46  1  0.33333333  0.66666667  0.79890367  1
  Pt  Pt47  1  0.16666667  0.83333333  0.54890367  1
  Pt  Pt48  1  0.66666667  0.33333333  0.20109633  1
  Pt  Pt49  1  0.83333333  0.16666667  0.45109633  1
  Pt  Pt50  1  0.83333333  0.16666667  0.29890367  1
  Pt  Pt51  1  0.66666667  0.33333333  0.04890367  1
  Pt  Pt52  1  0.66666667  0.33333333  0.70109633  1
  Pt  Pt53  1  0.83333333  0.16666667  0.95109633  1
  Pt  Pt54  1  0.83333333  0.16666667  0.79890367  1
  Pt  Pt55  1  0.66666667  0.33333333  0.54890367  1
  Pt  Pt56  1  0.66666667  0.83333333  0.20109633  1
  Pt  Pt57  1  0.83333333  0.66666667  0.45109633  1
  Pt  Pt58  1  0.83333333  0.66666667  0.29890367  1
  Pt  Pt59  1  0.66666667  0.83333333  0.04890367  1
  Pt  Pt60  1  0.66666667  0.83333333  0.70109633  1
  Pt  Pt61  1  0.83333333  0.66666667  0.95109633  1
  Pt  Pt62  1  0.83333333  0.66666667  0.79890367  1
  Pt  Pt63  1  0.66666667  0.83333333  0.54890367  1
