# generated using pymatgen
data_ZrTaTiCoWC5
_symmetry_space_group_name_H-M   'P 1'
_cell_length_a   5.41752149
_cell_length_b   5.40835150
_cell_length_c   8.17961283
_cell_angle_alpha   108.97681729
_cell_angle_beta   108.95964033
_cell_angle_gamma   80.65872814
_symmetry_Int_Tables_number   1
_chemical_formula_structural   ZrTaTiCoWC5
_chemical_formula_sum   'Zr2 Ta2 Ti2 Co2 W2 C10'
_cell_volume   213.90984127
_cell_formula_units_Z   2
loop_
 _symmetry_equiv_pos_site_id
 _symmetry_equiv_pos_as_xyz
  1  'x, y, z'
loop_
 _atom_site_type_symbol
 _atom_site_label
 _atom_site_symmetry_multiplicity
 _atom_site_fract_x
 _atom_site_fract_y
 _atom_site_fract_z
 _atom_site_occupancy
  C  C0  1  0.74521373  0.12082182  0.52788907  1
  C  C1  1  0.24440940  0.86620879  0.44521036  1
  C  C2  1  0.75237710  0.57132888  0.34545482  1
  C  C3  1  0.23997201  0.24728586  0.24905744  1
  C  C4  1  0.74990555  0.95056757  0.15881798  1
  C  C5  1  0.25932590  0.65965408  0.05695397  1
  C  C6  1  0.74591325  0.35128123  0.95420304  1
  C  C7  1  0.26012783  0.04482972  0.85086074  1
  C  C8  1  0.75119786  0.76303736  0.75118982  1
  C  C9  1  0.24262931  0.45112122  0.64228324  1
  Co  Co10  1  0.01187301  0.16329803  0.40991756  1
  Co  Co11  1  0.48106670  0.90431113  0.30514251  1
  Ta  Ta12  1  0.50620063  0.30019618  0.10285022  1
  Ta  Ta13  1  0.00851078  0.00398955  0.01177412  1
  Ti  Ti14  1  0.49504129  0.09924683  0.69348569  1
  Ti  Ti15  1  0.99622380  0.61537864  0.20561698  1
  W  W16  1  0.00627758  0.79765473  0.60572966  1
  W  W17  1  0.50459022  0.70025191  0.89634701  1
  Zr  Zr18  1  0.50044329  0.49858245  0.49148550  1
  Zr  Zr19  1  0.99870078  0.39095401  0.79573030  1
