# generated using pymatgen
data_Zr3Ti5C8
_symmetry_space_group_name_H-M   'P 1'
_cell_length_a   7.10727080
_cell_length_b   7.10566617
_cell_length_c   8.39962714
_cell_angle_alpha   75.20550660
_cell_angle_beta   64.97345215
_cell_angle_gamma   72.49004624
_symmetry_Int_Tables_number   1
_chemical_formula_structural   Zr3Ti5C8
_chemical_formula_sum   'Zr6 Ti10 C16'
_cell_volume   362.51175357
_cell_formula_units_Z   2
loop_
 _symmetry_equiv_pos_site_id
 _symmetry_equiv_pos_as_xyz
  1  'x, y, z'
loop_
 _atom_site_type_symbol
 _atom_site_label
 _atom_site_symmetry_multiplicity
 _atom_site_fract_x
 _atom_site_fract_y
 _atom_site_fract_z
 _atom_site_occupancy
  C  C0  1  0.84800952  0.40809932  0.47883434  1
  C  C1  1  0.14594246  0.59640234  0.53442375  1
  C  C2  1  0.28021101  0.47572215  0.15750828  1
  C  C3  1  0.46321822  0.78557716  0.60557698  1
  C  C4  1  0.77965083  0.96453077  0.66432369  1
  C  C5  1  0.09346579  0.15598900  0.71919162  1
  C  C6  1  0.58759390  0.66200417  0.21204548  1
  C  C7  1  0.91559173  0.84159057  0.28033549  1
  C  C8  1  0.21563897  0.02749988  0.35258545  1
  C  C9  1  0.40556840  0.34368500  0.78157264  1
  C  C10  1  0.72255150  0.53532445  0.83483658  1
  C  C11  1  0.03449964  0.72253291  0.89715717  1
  C  C12  1  0.34535724  0.89883930  0.96434911  1
  C  C13  1  0.51889384  0.21807987  0.41634546  1
  C  C14  1  0.67001636  0.08697811  0.01898897  1
  C  C15  1  0.97371670  0.27729719  0.08221560  1
  Ti  Ti16  1  0.06257135  0.43844708  0.80821110  1
  Ti  Ti17  1  0.37515449  0.62923685  0.87289869  1
  Ti  Ti18  1  0.69075347  0.81241884  0.93080858  1
  Ti  Ti19  1  0.00566529  0.99879495  0.99199319  1
  Ti  Ti20  1  0.81406358  0.68635180  0.56761448  1
  Ti  Ti21  1  0.12098456  0.87547277  0.62952359  1
  Ti  Ti22  1  0.43373014  0.06060296  0.69165482  1
  Ti  Ti23  1  0.24777818  0.74931492  0.24976995  1
  Ti  Ti24  1  0.75412533  0.24897219  0.74948124  1
  Ti  Ti25  1  0.18296262  0.31257875  0.44483271  1
  Zr  Zr26  1  0.49402086  0.50301433  0.50503164  1
  Zr  Zr27  1  0.31575609  0.18390155  0.05945850  1
  Zr  Zr28  1  0.62562124  0.37644949  0.11927148  1
  Zr  Zr29  1  0.94016902  0.56484847  0.18392113  1
  Zr  Zr30  1  0.56211096  0.93676698  0.31500156  1
  Zr  Zr31  1  0.87460670  0.12267590  0.38023674  1
