# generated using pymatgen
data_Zr5Ti3C8
_symmetry_space_group_name_H-M   'P 1'
_cell_length_a   11.22325702
_cell_length_b   9.71432657
_cell_length_c   7.25618515
_cell_angle_alpha   81.40917171
_cell_angle_beta   58.85288074
_cell_angle_gamma   39.74582815
_symmetry_Int_Tables_number   1
_chemical_formula_structural   Zr5Ti3C8
_chemical_formula_sum   'Zr10 Ti6 C16'
_cell_volume   385.76645152
_cell_formula_units_Z   2
loop_
 _symmetry_equiv_pos_site_id
 _symmetry_equiv_pos_as_xyz
  1  'x, y, z'
loop_
 _atom_site_type_symbol
 _atom_site_label
 _atom_site_symmetry_multiplicity
 _atom_site_fract_x
 _atom_site_fract_y
 _atom_site_fract_z
 _atom_site_occupancy
  C  C0  1  0.86218875  0.37967173  0.63283755  1
  C  C1  1  0.62631844  0.37631844  0.12368156  1
  C  C2  1  0.86697411  0.14075376  0.38294844  1
  C  C3  1  0.38225656  0.37535477  0.61260719  1
  C  C4  1  0.62535477  0.13225656  0.87978148  1
  C  C5  1  0.86704956  0.88425616  0.12801232  1
  C  C6  1  0.12115558  0.37176310  0.12865882  1
  C  C7  1  0.37653604  0.12653604  0.37346396  1
  C  C8  1  0.62176310  0.87115558  0.62842250  1
  C  C9  1  0.87097026  0.62097026  0.87902974  1
  C  C10  1  0.11958270  0.12916495  0.88477026  1
  C  C11  1  0.37916495  0.86958270  0.11648210  1
  C  C12  1  0.62967173  0.61218875  0.37530196  1
  C  C13  1  0.12594259  0.87594259  0.62405741  1
  C  C14  1  0.39075376  0.61697411  0.85932368  1
  C  C15  1  0.13425616  0.61704956  0.37068195  1
  Ti  Ti16  1  0.99355579  0.25235136  0.25352635  1
  Ti  Ti17  1  0.74907237  0.25539629  0.74916796  1
  Ti  Ti18  1  0.50253711  0.25253711  0.24746289  1
  Ti  Ti19  1  0.50235136  0.74355579  0.75056651  1
  Ti  Ti20  1  0.74758355  0.49758355  0.00241645  1
  Ti  Ti21  1  0.50539629  0.49907237  0.49636339  1
  Zr  Zr22  1  0.24868951  0.24865216  0.75141927  1
  Zr  Zr23  1  0.24867467  0.99867467  0.50132533  1
  Zr  Zr24  1  0.99886353  0.00457890  0.00053699  1
  Zr  Zr25  1  0.25457890  0.74886353  0.24602058  1
  Zr  Zr26  1  0.74977395  0.00400832  0.50019319  1
  Zr  Zr27  1  0.00128496  0.75128496  0.74871504  1
  Zr  Zr28  1  0.25400832  0.49977395  0.99602454  1
  Zr  Zr29  1  0.49865216  0.99868951  0.00123905  1
  Zr  Zr30  1  0.74785645  0.74718199  0.25251535  1
  Zr  Zr31  1  0.99718199  0.49785645  0.50244620  1
