# generated using pymatgen
data_Zr3TiC4
_symmetry_space_group_name_H-M   'P 1'
_cell_length_a   6.54980024
_cell_length_b   7.31870486
_cell_length_c   8.65454549
_cell_angle_alpha   89.96462912
_cell_angle_beta   100.93616772
_cell_angle_gamma   102.90063552
_symmetry_Int_Tables_number   1
_chemical_formula_structural   Zr3TiC4
_chemical_formula_sum   'Zr12 Ti4 C16'
_cell_volume   396.67116205
_cell_formula_units_Z   4
loop_
 _symmetry_equiv_pos_site_id
 _symmetry_equiv_pos_as_xyz
  1  'x, y, z'
loop_
 _atom_site_type_symbol
 _atom_site_label
 _atom_site_symmetry_multiplicity
 _atom_site_fract_x
 _atom_site_fract_y
 _atom_site_fract_z
 _atom_site_occupancy
  C  C0  1  0.93541532  0.19649484  0.56694437  1
  C  C1  1  0.18449729  0.43857089  0.31711484  1
  C  C2  1  0.81298955  0.06299337  0.18714738  1
  C  C3  1  0.05716284  0.31971326  0.93114175  1
  C  C4  1  0.44503738  0.18992450  0.56854350  1
  C  C5  1  0.06052941  0.80421166  0.43903535  1
  C  C6  1  0.69395470  0.43937138  0.31718574  1
  C  C7  1  0.31211404  0.06301444  0.18709170  1
  C  C8  1  0.93331655  0.68459347  0.05235372  1
  C  C9  1  0.56806829  0.32028487  0.93136669  1
  C  C10  1  0.18540491  0.93046991  0.81310647  1
  C  C11  1  0.81844484  0.55631726  0.69375662  1
  C  C12  1  0.56253238  0.81104480  0.43782384  1
  C  C13  1  0.43522644  0.68439180  0.05277921  1
  C  C14  1  0.68720947  0.93485393  0.81246220  1
  C  C15  1  0.30758456  0.56296396  0.69209077  1
  Ti  Ti16  1  0.62575931  0.62343946  0.87464693  1
  Ti  Ti17  1  0.99996182  0.49945091  0.50351241  1
  Ti  Ti18  1  0.12210380  0.62200430  0.87184941  1
  Ti  Ti19  1  0.75315069  0.25687730  0.74983190  1
  Zr  Zr20  1  0.37473833  0.87153389  0.62758259  1
  Zr  Zr21  1  0.62728118  0.12733943  0.37776918  1
  Zr  Zr22  1  0.24806006  0.74777256  0.24759913  1
  Zr  Zr23  1  0.50033954  0.99941482  0.99692890  1
  Zr  Zr24  1  0.87472905  0.87127524  0.62766644  1
  Zr  Zr25  1  0.50233111  0.49984411  0.50491110  1
  Zr  Zr26  1  0.12491253  0.12589260  0.37760930  1
  Zr  Zr27  1  0.75001620  0.74783440  0.24825113  1
  Zr  Zr28  1  0.37494594  0.37742143  0.12256067  1
  Zr  Zr29  1  0.99776262  0.99926302  0.99687131  1
  Zr  Zr30  1  0.24949415  0.25403767  0.75029450  1
  Zr  Zr31  1  0.87492569  0.37738454  0.12217096  1
