# generated using pymatgen
data_HfZrTaTiWC5
_symmetry_space_group_name_H-M   'P 1'
_cell_length_a   5.51191384
_cell_length_b   5.51577235
_cell_length_c   8.42794394
_cell_angle_alpha   108.97592514
_cell_angle_beta   109.11059261
_cell_angle_gamma   80.43680724
_symmetry_Int_Tables_number   1
_chemical_formula_structural   HfZrTaTiWC5
_chemical_formula_sum   'Hf2 Zr2 Ta2 Ti2 W2 C10'
_cell_volume   228.44045366
_cell_formula_units_Z   2
loop_
 _symmetry_equiv_pos_site_id
 _symmetry_equiv_pos_as_xyz
  1  'x, y, z'
loop_
 _atom_site_type_symbol
 _atom_site_label
 _atom_site_symmetry_multiplicity
 _atom_site_fract_x
 _atom_site_fract_y
 _atom_site_fract_z
 _atom_site_occupancy
  C  C0  1  0.75144112  0.13720145  0.55341882  1
  C  C1  1  0.24334126  0.84857714  0.45452020  1
  C  C2  1  0.75662512  0.55215752  0.34420010  1
  C  C3  1  0.24343518  0.25245922  0.24155286  1
  C  C4  1  0.74951046  0.94612615  0.14492047  1
  C  C5  1  0.25008727  0.65424950  0.04924623  1
  C  C6  1  0.74520662  0.34940208  0.95176758  1
  C  C7  1  0.25821017  0.04280817  0.85049912  1
  C  C8  1  0.74783265  0.76147174  0.75408174  1
  C  C9  1  0.25510114  0.45221630  0.65538787  1
  Hf  Hf10  1  0.00196366  0.19988808  0.40050024  1
  Hf  Hf11  1  0.49981909  0.89844979  0.29952298  1
  Ta  Ta12  1  0.49924876  0.30291948  0.09738540  1
  Ta  Ta13  1  0.99651343  0.00073355  0.99877500  1
  Ti  Ti14  1  0.49677898  0.10084899  0.70125637  1
  Ti  Ti15  1  0.99797368  0.60247903  0.19796365  1
  W  W16  1  0.00020353  0.80166571  0.60604429  1
  W  W17  1  0.50354921  0.69939870  0.89448869  1
  Zr  Zr18  1  0.50220631  0.50024404  0.50197658  1
  Zr  Zr19  1  0.00095239  0.39670335  0.80249179  1
