# generated using pymatgen
data_ZrTaTiCuWC5
_symmetry_space_group_name_H-M   'P 1'
_cell_length_a   5.54397098
_cell_length_b   5.44754658
_cell_length_c   8.52818749
_cell_angle_alpha   110.41517646
_cell_angle_beta   111.08243292
_cell_angle_gamma   78.90041994
_symmetry_Int_Tables_number   1
_chemical_formula_structural   ZrTaTiCuWC5
_chemical_formula_sum   'Zr2 Ta2 Ti2 Cu2 W2 C10'
_cell_volume   224.56260080
_cell_formula_units_Z   2
loop_
 _symmetry_equiv_pos_site_id
 _symmetry_equiv_pos_as_xyz
  1  'x, y, z'
loop_
 _atom_site_type_symbol
 _atom_site_label
 _atom_site_symmetry_multiplicity
 _atom_site_fract_x
 _atom_site_fract_y
 _atom_site_fract_z
 _atom_site_occupancy
  C  C0  1  0.72756207  0.12648373  0.55482510  1
  C  C1  1  0.22033363  0.84371601  0.45827590  1
  C  C2  1  0.76390742  0.55527195  0.34938077  1
  C  C3  1  0.26914466  0.26520148  0.22718712  1
  C  C4  1  0.77112402  0.94811455  0.13050278  1
  C  C5  1  0.27432964  0.66743078  0.05286336  1
  C  C6  1  0.75940560  0.35684624  0.95272425  1
  C  C7  1  0.26771159  0.04423019  0.84942822  1
  C  C8  1  0.75088905  0.75879847  0.74841384  1
  C  C9  1  0.25779006  0.45939544  0.65864728  1
  Cu  Cu10  1  0.93447438  0.14382637  0.39722165  1
  Cu  Cu11  1  0.43961539  0.91594201  0.33025839  1
  Ta  Ta12  1  0.52574764  0.32056707  0.10538415  1
  Ta  Ta13  1  0.02824606  0.01351674  0.00345644  1
  Ti  Ti14  1  0.49424507  0.09820927  0.69947056  1
  Ti  Ti15  1  0.01319420  0.61687105  0.20039888  1
  W  W16  1  0.98471107  0.77530762  0.58071763  1
  W  W17  1  0.52135639  0.71398829  0.91323791  1
  Zr  Zr18  1  0.49140813  0.48306270  0.49436148  1
  Zr  Zr19  1  0.00480394  0.39322006  0.79324428  1
