# generated using pymatgen
data_ZrTaTiMoWC5
_symmetry_space_group_name_H-M   'P 1'
_cell_length_a   5.44816961
_cell_length_b   5.45680960
_cell_length_c   8.32082774
_cell_angle_alpha   108.94532099
_cell_angle_beta   109.09247373
_cell_angle_gamma   80.77213662
_symmetry_Int_Tables_number   1
_chemical_formula_structural   ZrTaTiMoWC5
_chemical_formula_sum   'Zr2 Ta2 Ti2 Mo2 W2 C10'
_cell_volume   220.69762097
_cell_formula_units_Z   2
loop_
 _symmetry_equiv_pos_site_id
 _symmetry_equiv_pos_as_xyz
  1  'x, y, z'
loop_
 _atom_site_type_symbol
 _atom_site_label
 _atom_site_symmetry_multiplicity
 _atom_site_fract_x
 _atom_site_fract_y
 _atom_site_fract_z
 _atom_site_occupancy
  C  C0  1  0.75702598  0.15821475  0.55619234  1
  C  C1  1  0.24457294  0.84400051  0.45412421  1
  C  C2  1  0.75188088  0.54233646  0.34930436  1
  C  C3  1  0.25307021  0.26693775  0.25293868  1
  C  C4  1  0.74782824  0.95383050  0.14974425  1
  C  C5  1  0.24676053  0.63743192  0.04548667  1
  C  C6  1  0.75149782  0.35617024  0.95034431  1
  C  C7  1  0.25657322  0.05954263  0.84791578  1
  C  C8  1  0.74071333  0.74262208  0.74464739  1
  C  C9  1  0.25078323  0.44762187  0.65142333  1
  Mo  Mo10  1  0.99217294  0.78355105  0.58602655  1
  Mo  Mo11  1  0.49881894  0.67641080  0.90008030  1
  Zr  Zr12  1  0.49926607  0.89986880  0.30231915  1
  Zr  Zr13  1  0.00258624  0.00133200  0.99439006  1
  Ta  Ta14  1  0.50217404  0.09245585  0.70373299  1
  Ta  Ta15  1  0.00289938  0.20180656  0.40223909  1
  Ti  Ti16  1  0.49590009  0.50193810  0.50566875  1
  Ti  Ti17  1  0.00131785  0.60273177  0.19681085  1
  W  W18  1  0.51237810  0.31412346  0.11208517  1
  W  W19  1  0.99177998  0.41707291  0.79452577  1
