# generated using pymatgen
data_TaTiZnMoWC5
_symmetry_space_group_name_H-M   'P 1'
_cell_length_a   5.38955550
_cell_length_b   5.40660701
_cell_length_c   8.22100407
_cell_angle_alpha   108.63104908
_cell_angle_beta   108.69677067
_cell_angle_gamma   80.82472419
_symmetry_Int_Tables_number   1
_chemical_formula_structural   TaTiZnMoWC5
_chemical_formula_sum   'Ta2 Ti2 Zn2 Mo2 W2 C10'
_cell_volume   214.58601077
_cell_formula_units_Z   2
loop_
 _symmetry_equiv_pos_site_id
 _symmetry_equiv_pos_as_xyz
  1  'x, y, z'
loop_
 _atom_site_type_symbol
 _atom_site_label
 _atom_site_symmetry_multiplicity
 _atom_site_fract_x
 _atom_site_fract_y
 _atom_site_fract_z
 _atom_site_occupancy
  C  C0  1  0.76018863  0.15286789  0.55561262  1
  C  C1  1  0.24407823  0.84548518  0.45275818  1
  C  C2  1  0.74430036  0.54632494  0.34773145  1
  C  C3  1  0.25243836  0.27439373  0.25100758  1
  C  C4  1  0.74292871  0.95167044  0.14870812  1
  C  C5  1  0.24795578  0.63423792  0.04081261  1
  C  C6  1  0.75377282  0.35805497  0.94947882  1
  C  C7  1  0.25064567  0.05163238  0.85081345  1
  C  C8  1  0.75044519  0.74395307  0.74644593  1
  C  C9  1  0.25341077  0.44776224  0.64907805  1
  Mo  Mo10  1  0.96939800  0.76711614  0.58587106  1
  Mo  Mo11  1  0.49656669  0.72448635  0.88450512  1
  Zn  Zn12  1  0.47556989  0.90080556  0.29158364  1
  Zn  Zn13  1  0.00739898  0.00766683  0.01702446  1
  Ta  Ta14  1  0.52041683  0.11109736  0.70315682  1
  Ta  Ta15  1  0.00275759  0.18505757  0.40449619  1
  Ti  Ti16  1  0.48399529  0.50858285  0.49761663  1
  Ti  Ti17  1  0.99311034  0.60935343  0.18879985  1
  W  W18  1  0.51184286  0.30069859  0.12238779  1
  W  W19  1  0.03877902  0.37875253  0.81211161  1
