# generated using pymatgen
data_YTaTiMoWC5
_symmetry_space_group_name_H-M   'P 1'
_cell_length_a   5.50037376
_cell_length_b   5.54103741
_cell_length_c   8.40397884
_cell_angle_alpha   108.73989625
_cell_angle_beta   109.08828395
_cell_angle_gamma   80.56606062
_symmetry_Int_Tables_number   1
_chemical_formula_structural   YTaTiMoWC5
_chemical_formula_sum   'Y2 Ta2 Ti2 Mo2 W2 C10'
_cell_volume   228.72323152
_cell_formula_units_Z   2
loop_
 _symmetry_equiv_pos_site_id
 _symmetry_equiv_pos_as_xyz
  1  'x, y, z'
loop_
 _atom_site_type_symbol
 _atom_site_label
 _atom_site_symmetry_multiplicity
 _atom_site_fract_x
 _atom_site_fract_y
 _atom_site_fract_z
 _atom_site_occupancy
  C  C0  1  0.76531469  0.16068822  0.56239530  1
  C  C1  1  0.23586820  0.84446013  0.46043414  1
  C  C2  1  0.75418491  0.53520433  0.35081183  1
  C  C3  1  0.25482812  0.28269676  0.25807023  1
  C  C4  1  0.74581923  0.95929870  0.14885484  1
  C  C5  1  0.25069806  0.61643869  0.03769736  1
  C  C6  1  0.74430722  0.36516529  0.94964844  1
  C  C7  1  0.25857029  0.06528118  0.84229780  1
  C  C8  1  0.73700143  0.73999213  0.74017840  1
  C  C9  1  0.25125249  0.44841117  0.65096672  1
  Mo  Mo10  1  0.98435664  0.76712372  0.58714996  1
  Mo  Mo11  1  0.50890530  0.68279880  0.89077312  1
  Y  Y12  1  0.49596983  0.89914916  0.30249192  1
  Y  Y13  1  0.00853270  0.00221397  0.99479274  1
  Ta  Ta14  1  0.49710374  0.10109307  0.70266403  1
  Ta  Ta15  1  0.00307180  0.19989516  0.40552219  1
  Ti  Ti16  1  0.49020925  0.50498810  0.50385096  1
  Ti  Ti17  1  0.99956687  0.60289329  0.19648521  1
  W  W18  1  0.52186919  0.31430384  0.11888538  1
  W  W19  1  0.99257007  0.40790428  0.79602940  1
