# generated using pymatgen
data_TaTiVMoWC5
_symmetry_space_group_name_H-M   'P 1'
_cell_length_a   5.33072691
_cell_length_b   5.33517851
_cell_length_c   8.14725511
_cell_angle_alpha   109.07646449
_cell_angle_beta   109.23951450
_cell_angle_gamma   80.53900359
_symmetry_Int_Tables_number   1
_chemical_formula_structural   TaTiVMoWC5
_chemical_formula_sum   'Ta2 Ti2 V2 Mo2 W2 C10'
_cell_volume   206.33814103
_cell_formula_units_Z   2
loop_
 _symmetry_equiv_pos_site_id
 _symmetry_equiv_pos_as_xyz
  1  'x, y, z'
loop_
 _atom_site_type_symbol
 _atom_site_label
 _atom_site_symmetry_multiplicity
 _atom_site_fract_x
 _atom_site_fract_y
 _atom_site_fract_z
 _atom_site_occupancy
  C  C0  1  0.75044431  0.15123040  0.54995489  1
  C  C1  1  0.25566470  0.84372601  0.44512290  1
  C  C2  1  0.74407530  0.55570563  0.34709895  1
  C  C3  1  0.25079198  0.24670462  0.24662090  1
  C  C4  1  0.74350587  0.95087460  0.14782588  1
  C  C5  1  0.24490425  0.65879444  0.05809031  1
  C  C6  1  0.76038070  0.34694637  0.95356197  1
  C  C7  1  0.24305589  0.05718330  0.85303802  1
  C  C8  1  0.75170602  0.75030489  0.75420446  1
  C  C9  1  0.25563154  0.44198562  0.64787755  1
  Mo  Mo10  1  0.01538079  0.79244808  0.60126200  1
  Mo  Mo11  1  0.47853502  0.69937437  0.90125486  1
  V  V12  1  0.48199079  0.89022161  0.29252659  1
  V  V13  1  0.02686908  0.99336400  0.00136197  1
  Ta  Ta14  1  0.50880779  0.09518768  0.70279358  1
  Ta  Ta15  1  0.99979065  0.19785480  0.39679638  1
  Ti  Ti16  1  0.49562415  0.49772914  0.49544208  1
  Ti  Ti17  1  0.99500422  0.60304634  0.19762231  1
  W  W18  1  0.49474779  0.29861507  0.10169808  1
  W  W19  1  0.00308915  0.42870307  0.80584630  1
