# generated using pymatgen
data_TaTiTcMoWC5
_symmetry_space_group_name_H-M   'P 1'
_cell_length_a   5.33791375
_cell_length_b   5.36054324
_cell_length_c   8.26883130
_cell_angle_alpha   109.09568028
_cell_angle_beta   108.75169588
_cell_angle_gamma   80.66595609
_symmetry_Int_Tables_number   1
_chemical_formula_structural   TaTiTcMoWC5
_chemical_formula_sum   'Ta2 Ti2 Tc2 Mo2 W2 C10'
_cell_volume   211.28763847
_cell_formula_units_Z   2
loop_
 _symmetry_equiv_pos_site_id
 _symmetry_equiv_pos_as_xyz
  1  'x, y, z'
loop_
 _atom_site_type_symbol
 _atom_site_label
 _atom_site_symmetry_multiplicity
 _atom_site_fract_x
 _atom_site_fract_y
 _atom_site_fract_z
 _atom_site_occupancy
  C  C0  1  0.75888992  0.16878057  0.56146524  1
  C  C1  1  0.24712921  0.84305204  0.44719047  1
  C  C2  1  0.73943296  0.53878298  0.33830929  1
  C  C3  1  0.25729975  0.24078412  0.24907240  1
  C  C4  1  0.74788985  0.94133572  0.14829881  1
  C  C5  1  0.26385568  0.65661564  0.06556113  1
  C  C6  1  0.75350353  0.35225501  0.95215836  1
  C  C7  1  0.23586681  0.05086395  0.83969698  1
  C  C8  1  0.74991857  0.75265838  0.74789331  1
  C  C9  1  0.24689202  0.45512815  0.64743724  1
  Mo  Mo10  1  0.99315458  0.80280706  0.57330830  1
  Mo  Mo11  1  0.47136283  0.70642722  0.90573894  1
  Tc  Tc12  1  0.51308758  0.89418139  0.33679946  1
  Tc  Tc13  1  0.03104614  0.98941358  0.99475129  1
  Ta  Ta14  1  0.51235027  0.10021383  0.70822514  1
  Ta  Ta15  1  0.99697784  0.20110979  0.39484906  1
  Ti  Ti16  1  0.49452437  0.49476966  0.49568688  1
  Ti  Ti17  1  0.98755846  0.60395698  0.18787947  1
  W  W18  1  0.50146562  0.26066564  0.10082397  1
  W  W19  1  0.99779400  0.44619827  0.80485429  1
