# generated using pymatgen
data_ScTaTiMoWC5
_symmetry_space_group_name_H-M   'P 1'
_cell_length_a   5.41359172
_cell_length_b   5.41648451
_cell_length_c   8.26460913
_cell_angle_alpha   108.98837888
_cell_angle_beta   109.02347408
_cell_angle_gamma   80.54354940
_symmetry_Int_Tables_number   1
_chemical_formula_structural   ScTaTiMoWC5
_chemical_formula_sum   'Sc2 Ta2 Ti2 Mo2 W2 C10'
_cell_volume   216.17767350
_cell_formula_units_Z   2
loop_
 _symmetry_equiv_pos_site_id
 _symmetry_equiv_pos_as_xyz
  1  'x, y, z'
loop_
 _atom_site_type_symbol
 _atom_site_label
 _atom_site_symmetry_multiplicity
 _atom_site_fract_x
 _atom_site_fract_y
 _atom_site_fract_z
 _atom_site_occupancy
  C  C0  1  0.75322364  0.15713839  0.55346914  1
  C  C1  1  0.24524227  0.84406933  0.45453046  1
  C  C2  1  0.74940269  0.54479742  0.34874953  1
  C  C3  1  0.25342039  0.26569750  0.25243242  1
  C  C4  1  0.74993096  0.95082666  0.14940714  1
  C  C5  1  0.24960835  0.63661103  0.04452497  1
  C  C6  1  0.75024232  0.35430235  0.95042380  1
  C  C7  1  0.25131383  0.05890992  0.84815353  1
  C  C8  1  0.74644931  0.74387750  0.74731602  1
  C  C9  1  0.25048338  0.44935932  0.65158053  1
  Mo  Mo10  1  0.98474400  0.78454826  0.59041487  1
  Mo  Mo11  1  0.50825622  0.70240418  0.90187227  1
  Sc  Sc12  1  0.49680837  0.89936319  0.30024055  1
  Sc  Sc13  1  0.00636771  0.00027876  0.99851900  1
  Ta  Ta14  1  0.50216549  0.09619419  0.70001375  1
  Ta  Ta15  1  0.00063284  0.19587766  0.39816465  1
  Ti  Ti16  1  0.49639878  0.50022238  0.50185299  1
  Ti  Ti17  1  0.00050913  0.60290888  0.19719850  1
  W  W18  1  0.51157556  0.30943106  0.10909467  1
  W  W19  1  0.99322476  0.40318203  0.80204125  1
