# generated using pymatgen
data_TaTiMoRuWC5
_symmetry_space_group_name_H-M   'P 1'
_cell_length_a   5.34947135
_cell_length_b   5.36368372
_cell_length_c   8.22927243
_cell_angle_alpha   109.23397602
_cell_angle_beta   108.88222537
_cell_angle_gamma   80.51771616
_symmetry_Int_Tables_number   1
_chemical_formula_structural   TaTiMoRuWC5
_chemical_formula_sum   'Ta2 Ti2 Mo2 Ru2 W2 C10'
_cell_volume   210.49696538
_cell_formula_units_Z   2
loop_
 _symmetry_equiv_pos_site_id
 _symmetry_equiv_pos_as_xyz
  1  'x, y, z'
loop_
 _atom_site_type_symbol
 _atom_site_label
 _atom_site_symmetry_multiplicity
 _atom_site_fract_x
 _atom_site_fract_y
 _atom_site_fract_z
 _atom_site_occupancy
  C  C0  1  0.76296641  0.16991054  0.56272476  1
  C  C1  1  0.24570586  0.84155096  0.44815440  1
  C  C2  1  0.74029099  0.53896195  0.34113779  1
  C  C3  1  0.25608718  0.24284869  0.24757651  1
  C  C4  1  0.74779485  0.93877779  0.14456817  1
  C  C5  1  0.26578754  0.65653094  0.06475034  1
  C  C6  1  0.75418621  0.35167899  0.95156626  1
  C  C7  1  0.23947773  0.05737651  0.84387198  1
  C  C8  1  0.74226022  0.75461588  0.74999839  1
  C  C9  1  0.24863144  0.44881189  0.64429578  1
  Mo  Mo10  1  0.98563630  0.79304075  0.58682124  1
  Mo  Mo11  1  0.46512699  0.70277274  0.89853629  1
  Ru  Ru12  1  0.51913485  0.90545476  0.32962307  1
  Ru  Ru13  1  0.02948578  0.99013279  0.99505246  1
  Ta  Ta14  1  0.51181540  0.10126250  0.70029633  1
  Ta  Ta15  1  0.00101469  0.19152823  0.39708894  1
  Ti  Ti16  1  0.49095135  0.50013191  0.49237465  1
  Ti  Ti17  1  0.98571189  0.60449984  0.19183089  1
  W  W18  1  0.50888304  0.26497997  0.10501254  1
  W  W19  1  0.99905126  0.44513235  0.80471918  1
