# generated using pymatgen
data_TaTiMoPtWC5
_symmetry_space_group_name_H-M   'P 1'
_cell_length_a   5.42049340
_cell_length_b   5.46467946
_cell_length_c   8.25863749
_cell_angle_alpha   109.44523764
_cell_angle_beta   108.43027946
_cell_angle_gamma   80.65995309
_symmetry_Int_Tables_number   1
_chemical_formula_structural   TaTiMoPtWC5
_chemical_formula_sum   'Ta2 Ti2 Mo2 Pt2 W2 C10'
_cell_volume   218.40044948
_cell_formula_units_Z   2
loop_
 _symmetry_equiv_pos_site_id
 _symmetry_equiv_pos_as_xyz
  1  'x, y, z'
loop_
 _atom_site_type_symbol
 _atom_site_label
 _atom_site_symmetry_multiplicity
 _atom_site_fract_x
 _atom_site_fract_y
 _atom_site_fract_z
 _atom_site_occupancy
  C  C0  1  0.77093026  0.15446804  0.56365011  1
  C  C1  1  0.24840419  0.84021901  0.45887148  1
  C  C2  1  0.75134246  0.53896146  0.34714615  1
  C  C3  1  0.26406469  0.25647579  0.23999924  1
  C  C4  1  0.75014071  0.93979283  0.15076625  1
  C  C5  1  0.25148085  0.65540594  0.05031417  1
  C  C6  1  0.75314345  0.36615935  0.95049647  1
  C  C7  1  0.26143594  0.05606146  0.85867721  1
  C  C8  1  0.73968069  0.75467443  0.75113370  1
  C  C9  1  0.25446092  0.44070552  0.64547180  1
  Mo  Mo10  1  0.98080930  0.75733638  0.58100098  1
  Mo  Mo11  1  0.44328575  0.70178429  0.88724893  1
  Pt  Pt12  1  0.48083882  0.91201891  0.30975596  1
  Pt  Pt13  1  0.00358271  0.02034415  0.00162018  1
  Ta  Ta14  1  0.51543817  0.09548359  0.70333158  1
  Ta  Ta15  1  0.01357711  0.18690285  0.41403361  1
  Ti  Ti16  1  0.48024520  0.49998077  0.48793309  1
  Ti  Ti17  1  0.99659473  0.60577545  0.18959959  1
  W  W18  1  0.56038358  0.27390430  0.11596414  1
  W  W19  1  0.98016045  0.44354548  0.79298537  1
