# generated using pymatgen
data_TaTiMoPdWC5
_symmetry_space_group_name_H-M   'P 1'
_cell_length_a   5.44121085
_cell_length_b   5.41619057
_cell_length_c   8.28927110
_cell_angle_alpha   109.06628725
_cell_angle_beta   108.85842946
_cell_angle_gamma   80.76461933
_symmetry_Int_Tables_number   1
_chemical_formula_structural   TaTiMoPdWC5
_chemical_formula_sum   'Ta2 Ti2 Mo2 Pd2 W2 C10'
_cell_volume   218.08251717
_cell_formula_units_Z   2
loop_
 _symmetry_equiv_pos_site_id
 _symmetry_equiv_pos_as_xyz
  1  'x, y, z'
loop_
 _atom_site_type_symbol
 _atom_site_label
 _atom_site_symmetry_multiplicity
 _atom_site_fract_x
 _atom_site_fract_y
 _atom_site_fract_z
 _atom_site_occupancy
  C  C0  1  0.76689261  0.15538904  0.55920701  1
  C  C1  1  0.24332507  0.84649414  0.45864439  1
  C  C2  1  0.74386982  0.54452006  0.34999948  1
  C  C3  1  0.25403064  0.27231700  0.24847202  1
  C  C4  1  0.74040085  0.95024592  0.14920220  1
  C  C5  1  0.23536679  0.64230616  0.04063894  1
  C  C6  1  0.75102005  0.36508797  0.94906216  1
  C  C7  1  0.25775300  0.05100206  0.85036823  1
  C  C8  1  0.75636141  0.74767906  0.74750534  1
  C  C9  1  0.25640640  0.44877820  0.65016615  1
  Mo  Mo10  1  0.96945463  0.75082693  0.58383717  1
  Mo  Mo11  1  0.51076169  0.73402211  0.88212061  1
  Pd  Pd12  1  0.46714329  0.88539122  0.28201951  1
  Pd  Pd13  1  0.99866423  0.01278571  0.01413020  1
  Ta  Ta14  1  0.52280345  0.11750324  0.69930200  1
  Ta  Ta15  1  0.00236120  0.18033413  0.40795655  1
  Ti  Ti16  1  0.47903458  0.51144663  0.49458900  1
  Ti  Ti17  1  0.98444054  0.60390090  0.19058308  1
  W  W18  1  0.51392740  0.29890016  0.12455991  1
  W  W19  1  0.04598234  0.38106936  0.81763602  1
