# generated using pymatgen
data_TaTiMoOsWC5
_symmetry_space_group_name_H-M   'P 1'
_cell_length_a   5.35547648
_cell_length_b   5.36149989
_cell_length_c   8.26202517
_cell_angle_alpha   109.09738178
_cell_angle_beta   108.91055337
_cell_angle_gamma   80.59012693
_symmetry_Int_Tables_number   1
_chemical_formula_structural   TaTiMoOsWC5
_chemical_formula_sum   'Ta2 Ti2 Mo2 Os2 W2 C10'
_cell_volume   211.63624104
_cell_formula_units_Z   2
loop_
 _symmetry_equiv_pos_site_id
 _symmetry_equiv_pos_as_xyz
  1  'x, y, z'
loop_
 _atom_site_type_symbol
 _atom_site_label
 _atom_site_symmetry_multiplicity
 _atom_site_fract_x
 _atom_site_fract_y
 _atom_site_fract_z
 _atom_site_occupancy
  C  C0  1  0.76326208  0.17308533  0.56548180  1
  C  C1  1  0.24700566  0.84290243  0.44738638  1
  C  C2  1  0.73657562  0.53666689  0.33854974  1
  C  C3  1  0.25306045  0.23948224  0.24819288  1
  C  C4  1  0.74942861  0.93772073  0.14328437  1
  C  C5  1  0.26930444  0.66007399  0.06941953  1
  C  C6  1  0.75522931  0.35017952  0.95238866  1
  C  C7  1  0.23631362  0.05728598  0.84089234  1
  C  C8  1  0.74403837  0.75625517  0.75115155  1
  C  C9  1  0.24866166  0.45007786  0.64344354  1
  Mo  Mo10  1  0.98382878  0.79353940  0.58169772  1
  Mo  Mo11  1  0.46539974  0.70273498  0.89806610  1
  Os  Os12  1  0.52316416  0.90368941  0.33096753  1
  Os  Os13  1  0.03264041  0.98667286  0.99296264  1
  Ta  Ta14  1  0.51249968  0.10254773  0.70235323  1
  Ta  Ta15  1  0.99709347  0.19339960  0.39874400  1
  Ti  Ti16  1  0.49141621  0.50158332  0.49332024  1
  Ti  Ti17  1  0.98230288  0.60367422  0.19195564  1
  W  W18  1  0.50393705  0.25907558  0.10450148  1
  W  W19  1  0.00483782  0.44935275  0.80524063  1
