# generated using pymatgen
data_TaTiNiMoWC5
_symmetry_space_group_name_H-M   'P 1'
_cell_length_a   5.34254980
_cell_length_b   5.32241373
_cell_length_c   8.14972852
_cell_angle_alpha   109.08278385
_cell_angle_beta   108.52096103
_cell_angle_gamma   80.25965324
_symmetry_Int_Tables_number   1
_chemical_formula_structural   TaTiNiMoWC5
_chemical_formula_sum   'Ta2 Ti2 Ni2 Mo2 W2 C10'
_cell_volume   207.10945043
_cell_formula_units_Z   2
loop_
 _symmetry_equiv_pos_site_id
 _symmetry_equiv_pos_as_xyz
  1  'x, y, z'
loop_
 _atom_site_type_symbol
 _atom_site_label
 _atom_site_symmetry_multiplicity
 _atom_site_fract_x
 _atom_site_fract_y
 _atom_site_fract_z
 _atom_site_occupancy
  C  C0  1  0.76027080  0.15241227  0.55401294  1
  C  C1  1  0.25377222  0.84230832  0.45055016  1
  C  C2  1  0.74205209  0.55925293  0.34841070  1
  C  C3  1  0.25870976  0.25067795  0.24287864  1
  C  C4  1  0.74264418  0.95281896  0.14678273  1
  C  C5  1  0.24108107  0.66675979  0.04752919  1
  C  C6  1  0.76334045  0.34582410  0.95274867  1
  C  C7  1  0.24270441  0.05260056  0.85620707  1
  C  C8  1  0.75650937  0.74987495  0.75381697  1
  C  C9  1  0.25578814  0.44382958  0.64772072  1
  Mo  Mo10  1  0.97840314  0.76434238  0.58844299  1
  Mo  Mo11  1  0.49141902  0.72258965  0.89099395  1
  Ni  Ni12  1  0.45747669  0.88644073  0.27926329  1
  Ni  Ni13  1  0.00861501  0.01317981  0.02494632  1
  Ta  Ta14  1  0.51229577  0.10226982  0.69826844  1
  Ta  Ta15  1  0.00596491  0.18379953  0.39926256  1
  Ti  Ti16  1  0.49152365  0.49541424  0.49585258  1
  Ti  Ti17  1  0.99655174  0.60378830  0.19549398  1
  W  W18  1  0.51770943  0.31461795  0.11271814  1
  W  W19  1  0.02316815  0.39719820  0.81409996  1
