# generated using pymatgen
data_LuTaTiMoWC5
_symmetry_space_group_name_H-M   'P 1'
_cell_length_a   5.46558923
_cell_length_b   5.48946246
_cell_length_c   8.34755636
_cell_angle_alpha   108.83087526
_cell_angle_beta   109.09967703
_cell_angle_gamma   80.53785947
_symmetry_Int_Tables_number   1
_chemical_formula_structural   LuTaTiMoWC5
_chemical_formula_sum   'Lu2 Ta2 Ti2 Mo2 W2 C10'
_cell_volume   223.51400688
_cell_formula_units_Z   2
loop_
 _symmetry_equiv_pos_site_id
 _symmetry_equiv_pos_as_xyz
  1  'x, y, z'
loop_
 _atom_site_type_symbol
 _atom_site_label
 _atom_site_symmetry_multiplicity
 _atom_site_fract_x
 _atom_site_fract_y
 _atom_site_fract_z
 _atom_site_occupancy
  C  C0  1  0.75995802  0.15939569  0.55891582  1
  C  C1  1  0.24007116  0.84417884  0.45826352  1
  C  C2  1  0.75168197  0.53893310  0.34974500  1
  C  C3  1  0.25385172  0.27529673  0.25570292  1
  C  C4  1  0.74753839  0.95520908  0.14890649  1
  C  C5  1  0.25006778  0.62606617  0.04090627  1
  C  C6  1  0.74698769  0.36099448  0.95004360  1
  C  C7  1  0.25483209  0.06296399  0.84411170  1
  C  C8  1  0.74102132  0.74140437  0.74290382  1
  C  C9  1  0.25111616  0.44858665  0.65095673  1
  Mo  Mo10  1  0.98469102  0.77257675  0.58851925  1
  Mo  Mo11  1  0.50872896  0.69151818  0.89464785  1
  Lu  Lu12  1  0.49629313  0.89941377  0.30173221  1
  Lu  Lu13  1  0.00720179  0.00137571  0.99627563  1
  Ta  Ta14  1  0.49998389  0.10036462  0.70162298  1
  Ta  Ta15  1  0.00179557  0.19786007  0.40256931  1
  Ti  Ti16  1  0.49302896  0.50318248  0.50304884  1
  Ti  Ti17  1  0.99910369  0.60320693  0.19655495  1
  W  W18  1  0.51704049  0.31320934  0.11462266  1
  W  W19  1  0.99500614  0.40426306  0.79995043  1
