# generated using pymatgen
data_TaTiMoIrWC5
_symmetry_space_group_name_H-M   'P 1'
_cell_length_a   5.40524090
_cell_length_b   5.40363305
_cell_length_c   8.21771254
_cell_angle_alpha   109.90006660
_cell_angle_beta   108.71955758
_cell_angle_gamma   80.15316703
_symmetry_Int_Tables_number   1
_chemical_formula_structural   TaTiMoIrWC5
_chemical_formula_sum   'Ta2 Ti2 Mo2 Ir2 W2 C10'
_cell_volume   213.23644543
_cell_formula_units_Z   2
loop_
 _symmetry_equiv_pos_site_id
 _symmetry_equiv_pos_as_xyz
  1  'x, y, z'
loop_
 _atom_site_type_symbol
 _atom_site_label
 _atom_site_symmetry_multiplicity
 _atom_site_fract_x
 _atom_site_fract_y
 _atom_site_fract_z
 _atom_site_occupancy
  C  C0  1  0.76901482  0.15915695  0.56062871  1
  C  C1  1  0.24460607  0.83738160  0.45212567  1
  C  C2  1  0.74750854  0.54437677  0.34662359  1
  C  C3  1  0.25674074  0.24186151  0.23627636  1
  C  C4  1  0.74261837  0.93902812  0.15011366  1
  C  C5  1  0.25993692  0.66943329  0.06205567  1
  C  C6  1  0.75487916  0.36078322  0.94969057  1
  C  C7  1  0.24634184  0.06211309  0.85628503  1
  C  C8  1  0.73327939  0.74764793  0.74702607  1
  C  C9  1  0.25809700  0.43682794  0.64307876  1
  Mo  Mo10  1  0.99961050  0.77719130  0.60024352  1
  Mo  Mo11  1  0.44798854  0.69859869  0.88961029  1
  Ir  Ir12  1  0.49364460  0.91709526  0.32331144  1
  Ir  Ir13  1  0.99318998  0.00435714  0.99411906  1
  Ta  Ta14  1  0.51351426  0.09475212  0.69678742  1
  Ta  Ta15  1  0.01386662  0.19231842  0.40264902  1
  Ti  Ti16  1  0.49234193  0.49342394  0.48524066  1
  Ti  Ti17  1  0.99183156  0.60564383  0.19561175  1
  W  W18  1  0.54514758  0.27417628  0.10609232  1
  W  W19  1  0.99584159  0.44383260  0.80243049  1
