# generated using pymatgen
data_TaTiFeMoWC5
_symmetry_space_group_name_H-M   'P 1'
_cell_length_a   5.30092294
_cell_length_b   5.30527328
_cell_length_c   8.14305797
_cell_angle_alpha   109.37162434
_cell_angle_beta   108.91125553
_cell_angle_gamma   80.50105101
_symmetry_Int_Tables_number   1
_chemical_formula_structural   TaTiFeMoWC5
_chemical_formula_sum   'Ta2 Ti2 Fe2 Mo2 W2 C10'
_cell_volume   203.95469140
_cell_formula_units_Z   2
loop_
 _symmetry_equiv_pos_site_id
 _symmetry_equiv_pos_as_xyz
  1  'x, y, z'
loop_
 _atom_site_type_symbol
 _atom_site_label
 _atom_site_symmetry_multiplicity
 _atom_site_fract_x
 _atom_site_fract_y
 _atom_site_fract_z
 _atom_site_occupancy
  C  C0  1  0.75176593  0.16149518  0.55297852  1
  C  C1  1  0.25206538  0.84234779  0.44507654  1
  C  C2  1  0.73602977  0.55152165  0.34123878  1
  C  C3  1  0.25728864  0.23079618  0.24223393  1
  C  C4  1  0.74717109  0.94123963  0.14522242  1
  C  C5  1  0.26132345  0.66985901  0.06481251  1
  C  C6  1  0.76061422  0.34413341  0.95201873  1
  C  C7  1  0.23194416  0.05471952  0.84955013  1
  C  C8  1  0.74988901  0.75775042  0.75504961  1
  C  C9  1  0.24818460  0.44877188  0.64506519  1
  Mo  Mo10  1  0.98889882  0.79433261  0.58816303  1
  Mo  Mo11  1  0.47124559  0.70455477  0.90088571  1
  Fe  Fe12  1  0.51074486  0.90648495  0.33297817  1
  Fe  Fe13  1  0.03770788  0.98864890  0.00056450  1
  Ta  Ta14  1  0.50837061  0.09980815  0.70082532  1
  Ta  Ta15  1  0.00049582  0.19117293  0.39292479  1
  Ti  Ti16  1  0.49141055  0.49523859  0.48998329  1
  Ti  Ti17  1  0.98990744  0.60539385  0.19239138  1
  W  W18  1  0.51025672  0.27599933  0.10306117  1
  W  W19  1  0.99468548  0.43573126  0.80497630  1
