# generated using pymatgen
data_TaTiCuMoWC5
_symmetry_space_group_name_H-M   'P 1'
_cell_length_a   5.35691309
_cell_length_b   5.36162294
_cell_length_c   8.19490528
_cell_angle_alpha   108.14320378
_cell_angle_beta   108.25172843
_cell_angle_gamma   80.42632848
_symmetry_Int_Tables_number   1
_chemical_formula_structural   TaTiCuMoWC5
_chemical_formula_sum   'Ta2 Ti2 Cu2 Mo2 W2 C10'
_cell_volume   211.79872834
_cell_formula_units_Z   2
loop_
 _symmetry_equiv_pos_site_id
 _symmetry_equiv_pos_as_xyz
  1  'x, y, z'
loop_
 _atom_site_type_symbol
 _atom_site_label
 _atom_site_symmetry_multiplicity
 _atom_site_fract_x
 _atom_site_fract_y
 _atom_site_fract_z
 _atom_site_occupancy
  C  C0  1  0.76500010  0.15334661  0.55849914  1
  C  C1  1  0.24951220  0.84578284  0.45211338  1
  C  C2  1  0.74586763  0.55244254  0.34885633  1
  C  C3  1  0.26359939  0.26793358  0.25308706  1
  C  C4  1  0.74145293  0.95475568  0.14803155  1
  C  C5  1  0.23307034  0.64554033  0.03741889  1
  C  C6  1  0.75437428  0.35391982  0.95195616  1
  C  C7  1  0.24819051  0.05048406  0.85441471  1
  C  C8  1  0.74954023  0.74201175  0.74569700  1
  C  C9  1  0.25564460  0.44263992  0.64660241  1
  Mo  Mo10  1  0.97596549  0.77052006  0.58999639  1
  Mo  Mo11  1  0.47860464  0.71389642  0.88165587  1
  Cu  Cu12  1  0.46739297  0.88112276  0.27580953  1
  Cu  Cu13  1  0.00835460  0.02328461  0.02828903  1
  Ta  Ta14  1  0.52168458  0.10548298  0.70291167  1
  Ta  Ta15  1  0.01418378  0.18721391  0.40609541  1
  Ti  Ti16  1  0.48924547  0.50668362  0.49899334  1
  Ti  Ti17  1  0.98964313  0.61084923  0.18604136  1
  W  W18  1  0.51591034  0.30849823  0.12442118  1
  W  W19  1  0.03276279  0.38359108  0.80910957  1
