# generated using pymatgen
data_TaTiCrMoWC5
_symmetry_space_group_name_H-M   'P 1'
_cell_length_a   5.32247540
_cell_length_b   5.34016041
_cell_length_c   8.12705026
_cell_angle_alpha   109.29423572
_cell_angle_beta   109.22089749
_cell_angle_gamma   80.61149645
_symmetry_Int_Tables_number   1
_chemical_formula_structural   TaTiCrMoWC5
_chemical_formula_sum   'Ta2 Ti2 Cr2 Mo2 W2 C10'
_cell_volume   205.48373558
_cell_formula_units_Z   2
loop_
 _symmetry_equiv_pos_site_id
 _symmetry_equiv_pos_as_xyz
  1  'x, y, z'
loop_
 _atom_site_type_symbol
 _atom_site_label
 _atom_site_symmetry_multiplicity
 _atom_site_fract_x
 _atom_site_fract_y
 _atom_site_fract_z
 _atom_site_occupancy
  C  C0  1  0.75253982  0.15434849  0.55250014  1
  C  C1  1  0.25711625  0.84379186  0.44492218  1
  C  C2  1  0.73972351  0.55752424  0.34672577  1
  C  C3  1  0.24770847  0.24579004  0.24570551  1
  C  C4  1  0.74576756  0.94522342  0.14955996  1
  C  C5  1  0.24480982  0.65797006  0.05783775  1
  C  C6  1  0.76103424  0.34553954  0.95508058  1
  C  C7  1  0.23955351  0.05807024  0.85242291  1
  C  C8  1  0.75434949  0.75357099  0.75744066  1
  C  C9  1  0.25694268  0.44337467  0.64905782  1
  Mo  Mo10  1  0.00656161  0.78393192  0.59685544  1
  Mo  Mo11  1  0.48176280  0.70869577  0.90271439  1
  Cr  Cr12  1  0.45669253  0.89639606  0.27538070  1
  Cr  Cr13  1  0.04652703  0.99933678  0.00208908  1
  Ta  Ta14  1  0.50938717  0.09808371  0.70201243  1
  Ta  Ta15  1  0.00155700  0.19255483  0.39840949  1
  Ti  Ti16  1  0.49479654  0.49906841  0.49427283  1
  Ti  Ti17  1  0.98957410  0.60289716  0.20020195  1
  W  W18  1  0.50876345  0.28043395  0.10740537  1
  W  W19  1  0.00483242  0.43339785  0.80940505  1
