# generated using pymatgen
data_TaTiCoMoWC5
_symmetry_space_group_name_H-M   'P 1'
_cell_length_a   5.32100175
_cell_length_b   5.31953159
_cell_length_c   8.12811295
_cell_angle_alpha   109.70009077
_cell_angle_beta   108.87111024
_cell_angle_gamma   80.31621511
_symmetry_Int_Tables_number   1
_chemical_formula_structural   TaTiCoMoWC5
_chemical_formula_sum   'Ta2 Ti2 Co2 Mo2 W2 C10'
_cell_volume   204.50686106
_cell_formula_units_Z   2
loop_
 _symmetry_equiv_pos_site_id
 _symmetry_equiv_pos_as_xyz
  1  'x, y, z'
loop_
 _atom_site_type_symbol
 _atom_site_label
 _atom_site_symmetry_multiplicity
 _atom_site_fract_x
 _atom_site_fract_y
 _atom_site_fract_z
 _atom_site_occupancy
  C  C0  1  0.75498551  0.15240753  0.54996556  1
  C  C1  1  0.25563079  0.83843144  0.44678110  1
  C  C2  1  0.74202578  0.55344045  0.34559899  1
  C  C3  1  0.25481482  0.23575144  0.23789073  1
  C  C4  1  0.74761163  0.94290109  0.14616565  1
  C  C5  1  0.25886422  0.67423468  0.06268258  1
  C  C6  1  0.76405929  0.34533955  0.95135199  1
  C  C7  1  0.23697652  0.05805447  0.85674201  1
  C  C8  1  0.74995740  0.75419352  0.75420101  1
  C  C9  1  0.25418372  0.44152807  0.64516944  1
  Mo  Mo10  1  0.99711778  0.78245528  0.59412659  1
  Mo  Mo11  1  0.46450225  0.70454561  0.89666566  1
  Co  Co12  1  0.47705537  0.92398011  0.31520754  1
  Co  Co13  1  0.01102621  0.99616338  0.00421086  1
  Ta  Ta14  1  0.51103056  0.09732963  0.69803533  1
  Ta  Ta15  1  0.00719743  0.18894200  0.39717500  1
  Ti  Ti16  1  0.49492749  0.49165385  0.49017219  1
  Ti  Ti17  1  0.99544027  0.60312531  0.19514066  1
  W  W18  1  0.52526776  0.28422172  0.10586809  1
  W  W19  1  0.99732519  0.43130089  0.80684901  1
