# generated using pymatgen
data_ZrTaTiWC4
_symmetry_space_group_name_H-M   'P 1'
_cell_length_a   8.36891837
_cell_length_b   8.37510473
_cell_length_c   8.36771710
_cell_angle_alpha   135.52918191
_cell_angle_beta   115.24344830
_cell_angle_gamma   81.99929732
_symmetry_Int_Tables_number   1
_chemical_formula_structural   ZrTaTiWC4
_chemical_formula_sum   'Zr4 Ta4 Ti4 W4 C16'
_cell_volume   358.78895631
_cell_formula_units_Z   4
loop_
 _symmetry_equiv_pos_site_id
 _symmetry_equiv_pos_as_xyz
  1  'x, y, z'
loop_
 _atom_site_type_symbol
 _atom_site_label
 _atom_site_symmetry_multiplicity
 _atom_site_fract_x
 _atom_site_fract_y
 _atom_site_fract_z
 _atom_site_occupancy
  C  C0  1  0.25261413  0.49763535  0.74519513  1
  C  C1  1  0.86812352  0.62012351  0.73876179  1
  C  C2  1  0.50689650  0.75461376  0.75566163  1
  C  C3  1  0.12294384  0.87530177  0.75496271  1
  C  C4  1  0.75024691  0.99051210  0.74936717  1
  C  C5  1  0.74598974  0.50024175  0.25441782  1
  C  C6  1  0.37530411  0.13966598  0.76595385  1
  C  C7  1  0.38048955  0.60914372  0.24190672  1
  C  C8  1  0.99868262  0.23764467  0.73689858  1
  C  C9  1  0.99669540  0.76012856  0.25456234  1
  C  C10  1  0.62185987  0.38359807  0.74979177  1
  C  C11  1  0.62623751  0.87340872  0.24429044  1
  C  C12  1  0.25233020  0.01052741  0.24956903  1
  C  C13  1  0.87308980  0.13093552  0.25387140  1
  C  C14  1  0.49987941  0.24918456  0.24956480  1
  C  C15  1  0.12793905  0.36815348  0.25222021  1
  Ta  Ta16  1  0.12529879  0.13207914  0.50296854  1
  Ta  Ta17  1  0.99980143  0.99671200  0.99880364  1
  Ta  Ta18  1  0.87480921  0.87298019  0.50076144  1
  Ta  Ta19  1  0.74501219  0.75317587  0.99922777  1
  Ti  Ti20  1  0.99256948  0.49603417  0.49334433  1
  Ti  Ti21  1  0.62618505  0.62737185  0.50447840  1
  Ti  Ti22  1  0.62776226  0.12370211  0.00015476  1
  Ti  Ti23  1  0.50373570  0.49757459  0.00457789  1
  W  W24  1  0.73290779  0.25732593  0.48297442  1
  W  W25  1  0.37569001  0.39124869  0.51650842  1
  W  W26  1  0.27348656  0.25410756  0.02448797  1
  W  W27  1  0.37172247  0.85254023  0.97995835  1
  Zr  Zr28  1  0.49986289  0.00012417  0.49747220  1
  Zr  Zr29  1  0.25224977  0.75120387  0.50621398  1
  Zr  Zr30  1  0.87483969  0.37245924  0.99802678  1
  Zr  Zr31  1  0.12474457  0.62054143  0.99304570  1
