# generated using pymatgen
data_AlTc2C
_symmetry_space_group_name_H-M   'P 1'
_cell_length_a   5.80053449
_cell_length_b   5.80053448
_cell_length_c   27.38807859
_cell_angle_alpha   90.00000000
_cell_angle_beta   90.00000000
_cell_angle_gamma   119.99999998
_symmetry_Int_Tables_number   1
_chemical_formula_structural   AlTc2C
_chemical_formula_sum   'Al16 Tc32 C16'
_cell_volume   798.04654856
_cell_formula_units_Z   16
loop_
 _symmetry_equiv_pos_site_id
 _symmetry_equiv_pos_as_xyz
  1  'x, y, z'
loop_
 _atom_site_type_symbol
 _atom_site_label
 _atom_site_symmetry_multiplicity
 _atom_site_fract_x
 _atom_site_fract_y
 _atom_site_fract_z
 _atom_site_occupancy
  C  C0  1  0.00000000  0.00000000  0.00000000  1
  C  C1  1  0.00000000  0.00000000  0.25000000  1
  C  C2  1  0.00000000  0.00000000  0.50000000  1
  C  C3  1  0.00000000  0.00000000  0.75000000  1
  C  C4  1  0.00000000  0.50000000  0.00000000  1
  C  C5  1  0.00000000  0.50000000  0.25000000  1
  C  C6  1  0.00000000  0.50000000  0.50000000  1
  C  C7  1  0.00000000  0.50000000  0.75000000  1
  C  C8  1  0.50000000  0.00000000  0.00000000  1
  C  C9  1  0.50000000  0.00000000  0.25000000  1
  C  C10  1  0.50000000  0.00000000  0.50000000  1
  C  C11  1  0.50000000  0.00000000  0.75000000  1
  C  C12  1  0.50000000  0.50000000  0.00000000  1
  C  C13  1  0.50000000  0.50000000  0.25000000  1
  C  C14  1  0.50000000  0.50000000  0.50000000  1
  C  C15  1  0.50000000  0.50000000  0.75000000  1
  Al  Al16  1  0.16666667  0.33333333  0.37500000  1
  Al  Al17  1  0.33333333  0.16666667  0.12500000  1
  Al  Al18  1  0.16666667  0.33333333  0.87500000  1
  Al  Al19  1  0.33333333  0.16666667  0.62500000  1
  Al  Al20  1  0.16666667  0.83333333  0.37500000  1
  Al  Al21  1  0.33333333  0.66666667  0.12500000  1
  Al  Al22  1  0.16666667  0.83333333  0.87500000  1
  Al  Al23  1  0.33333333  0.66666667  0.62500000  1
  Al  Al24  1  0.66666667  0.33333333  0.37500000  1
  Al  Al25  1  0.83333333  0.16666667  0.12500000  1
  Al  Al26  1  0.66666667  0.33333333  0.87500000  1
  Al  Al27  1  0.83333333  0.16666667  0.62500000  1
  Al  Al28  1  0.66666667  0.83333333  0.37500000  1
  Al  Al29  1  0.83333333  0.66666667  0.12500000  1
  Al  Al30  1  0.66666667  0.83333333  0.87500000  1
  Al  Al31  1  0.83333333  0.66666667  0.62500000  1
  Tc  Tc32  1  0.16666667  0.33333333  0.20341856  1
  Tc  Tc33  1  0.33333333  0.16666667  0.45341856  1
  Tc  Tc34  1  0.33333333  0.16666667  0.29658144  1
  Tc  Tc35  1  0.16666667  0.33333333  0.04658144  1
  Tc  Tc36  1  0.16666667  0.33333333  0.70341856  1
  Tc  Tc37  1  0.33333333  0.16666667  0.95341856  1
  Tc  Tc38  1  0.33333333  0.16666667  0.79658144  1
  Tc  Tc39  1  0.16666667  0.33333333  0.54658144  1
  Tc  Tc40  1  0.16666667  0.83333333  0.20341856  1
  Tc  Tc41  1  0.33333333  0.66666667  0.45341856  1
  Tc  Tc42  1  0.33333333  0.66666667  0.29658144  1
  Tc  Tc43  1  0.16666667  0.83333333  0.04658144  1
  Tc  Tc44  1  0.16666667  0.83333333  0.70341856  1
  Tc  Tc45  1  0.33333333  0.66666667  0.95341856  1
  Tc  Tc46  1  0.33333333  0.66666667  0.79658144  1
  Tc  Tc47  1  0.16666667  0.83333333  0.54658144  1
  Tc  Tc48  1  0.66666667  0.33333333  0.20341856  1
  Tc  Tc49  1  0.83333333  0.16666667  0.45341856  1
  Tc  Tc50  1  0.83333333  0.16666667  0.29658144  1
  Tc  Tc51  1  0.66666667  0.33333333  0.04658144  1
  Tc  Tc52  1  0.66666667  0.33333333  0.70341856  1
  Tc  Tc53  1  0.83333333  0.16666667  0.95341856  1
  Tc  Tc54  1  0.83333333  0.16666667  0.79658144  1
  Tc  Tc55  1  0.66666667  0.33333333  0.54658144  1
  Tc  Tc56  1  0.66666667  0.83333333  0.20341856  1
  Tc  Tc57  1  0.83333333  0.66666667  0.45341856  1
  Tc  Tc58  1  0.83333333  0.66666667  0.29658144  1
  Tc  Tc59  1  0.66666667  0.83333333  0.04658144  1
  Tc  Tc60  1  0.66666667  0.83333333  0.70341856  1
  Tc  Tc61  1  0.83333333  0.66666667  0.95341856  1
  Tc  Tc62  1  0.83333333  0.66666667  0.79658144  1
  Tc  Tc63  1  0.66666667  0.83333333  0.54658144  1
