# generated using pymatgen
data_TaTiMoWC4
_symmetry_space_group_name_H-M   'P 1'
_cell_length_a   6.20738729
_cell_length_b   6.22588086
_cell_length_c   8.77609880
_cell_angle_alpha   90.03594856
_cell_angle_beta   90.08930256
_cell_angle_gamma   89.83505508
_symmetry_Int_Tables_number   1
_chemical_formula_structural   TaTiMoWC4
_chemical_formula_sum   'Ta4 Ti4 Mo4 W4 C16'
_cell_volume   339.16321295
_cell_formula_units_Z   4
loop_
 _symmetry_equiv_pos_site_id
 _symmetry_equiv_pos_as_xyz
  1  'x, y, z'
loop_
 _atom_site_type_symbol
 _atom_site_label
 _atom_site_symmetry_multiplicity
 _atom_site_fract_x
 _atom_site_fract_y
 _atom_site_fract_z
 _atom_site_occupancy
  C  C0  1  0.24692590  0.75000975  0.99927416  1
  C  C1  1  0.24556793  0.25040327  0.99819044  1
  C  C2  1  0.00971899  0.50478174  0.74794959  1
  C  C3  1  0.00133569  0.99758168  0.75694159  1
  C  C4  1  0.24720945  0.74339484  0.49948038  1
  C  C5  1  0.24831133  0.26064674  0.49617141  1
  C  C6  1  0.00038725  0.49448623  0.25060879  1
  C  C7  1  0.75329016  0.75231716  0.99795934  1
  C  C8  1  0.99861113  0.00107213  0.25152094  1
  C  C9  1  0.75265020  0.24719124  0.00667300  1
  C  C10  1  0.49754523  0.49856847  0.74749254  1
  C  C11  1  0.50284415  0.00692702  0.74997092  1
  C  C12  1  0.74792611  0.74955687  0.49782511  1
  C  C13  1  0.75037301  0.25001804  0.50079892  1
  C  C14  1  0.49750279  0.49161063  0.24981098  1
  C  C15  1  0.49945001  0.00160849  0.25227340  1
  Mo  Mo16  1  0.00655379  0.01530464  0.50557803  1
  Mo  Mo17  1  0.77461908  0.25216480  0.75847518  1
  Mo  Mo18  1  0.47925579  0.00281688  0.50293230  1
  Mo  Mo19  1  0.74980558  0.73914992  0.24683253  1
  Ta  Ta20  1  0.24887603  0.75296416  0.25597493  1
  Ta  Ta21  1  0.75012175  0.75428406  0.74666259  1
  Ta  Ta22  1  0.50475252  0.00360985  0.00219735  1
  Ta  Ta23  1  0.50147995  0.50037629  0.00405608  1
  Ti  Ti24  1  0.00449998  0.49989421  0.49572845  1
  Ti  Ti25  1  0.24702017  0.25246002  0.25207030  1
  Ti  Ti26  1  0.99847031  0.00058283  0.00374219  1
  Ti  Ti27  1  0.75035747  0.24543509  0.24997066  1
  W  W28  1  0.24397927  0.23850730  0.74126811  1
  W  W29  1  0.24310172  0.76024903  0.73842303  1
  W  W30  1  0.98867023  0.49562464  0.00249883  1
  W  W31  1  0.50878699  0.48640202  0.49064791  1
