# generated using pymatgen
data_ZrTaTiCoWC5
_symmetry_space_group_name_H-M   'P 1'
_cell_length_a   6.95787844
_cell_length_b   6.99004373
_cell_length_c   4.45078507
_cell_angle_alpha   90.00000000
_cell_angle_beta   90.00000000
_cell_angle_gamma   89.77395783
_symmetry_Int_Tables_number   1
_chemical_formula_structural   ZrTaTiCoWC5
_chemical_formula_sum   'Zr2 Ta2 Ti2 Co2 W2 C10'
_cell_volume   216.46613971
_cell_formula_units_Z   2
loop_
 _symmetry_equiv_pos_site_id
 _symmetry_equiv_pos_as_xyz
  1  'x, y, z'
loop_
 _atom_site_type_symbol
 _atom_site_label
 _atom_site_symmetry_multiplicity
 _atom_site_fract_x
 _atom_site_fract_y
 _atom_site_fract_z
 _atom_site_occupancy
  C  C0  1  0.30645754  0.88976002  0.00000000  1
  C  C1  1  0.51003379  0.50032657  0.00000000  1
  C  C2  1  0.39465650  0.21362377  0.50000000  1
  C  C3  1  0.10150304  0.31012375  0.00000000  1
  C  C4  1  0.00675036  0.99636450  0.50000000  1
  C  C5  1  0.69012346  0.10777649  0.00000000  1
  C  C6  1  0.59566352  0.78311385  0.50000000  1
  C  C7  1  0.19912147  0.60303123  0.50000000  1
  C  C8  1  0.89406591  0.68801950  0.00000000  1
  C  C9  1  0.79531228  0.41378345  0.50000000  1
  Co  Co10  1  0.52774098  0.50059689  0.50000000  1
  Co  Co11  1  0.82712576  0.40361877  0.00000000  1
  Ta  Ta12  1  0.40601705  0.21909140  0.00000000  1
  Ta  Ta13  1  0.09705612  0.31707728  0.50000000  1
  Ti  Ti14  1  0.18156285  0.60366789  0.00000000  1
  Ti  Ti15  1  0.88323486  0.69834967  0.50000000  1
  W  W16  1  0.59303483  0.76885780  0.00000000  1
  W  W17  1  0.29363305  0.87249889  0.50000000  1
  Zr  Zr18  1  0.69697813  0.10988492  0.50000000  1
  Zr  Zr19  1  0.99992854  0.00043336  0.00000000  1
