# generated using pymatgen
data_TaTiMoIrWC5
_symmetry_space_group_name_H-M   'P 1'
_cell_length_a   5.40509678
_cell_length_b   5.40468182
_cell_length_c   8.21794708
_cell_angle_alpha   109.89151998
_cell_angle_beta   108.72631529
_cell_angle_gamma   80.16386779
_symmetry_Int_Tables_number   1
_chemical_formula_structural   TaTiMoIrWC5
_chemical_formula_sum   'Ta2 Ti2 Mo2 Ir2 W2 C10'
_cell_volume   213.28418463
_cell_formula_units_Z   2
loop_
 _symmetry_equiv_pos_site_id
 _symmetry_equiv_pos_as_xyz
  1  'x, y, z'
loop_
 _atom_site_type_symbol
 _atom_site_label
 _atom_site_symmetry_multiplicity
 _atom_site_fract_x
 _atom_site_fract_y
 _atom_site_fract_z
 _atom_site_occupancy
  C  C0  1  0.76903232  0.15914862  0.56066123  1
  C  C1  1  0.24460773  0.83738772  0.45212273  1
  C  C2  1  0.74752062  0.54435994  0.34661945  1
  C  C3  1  0.25677891  0.24184745  0.23627806  1
  C  C4  1  0.74262028  0.93905650  0.15009301  1
  C  C5  1  0.25993959  0.66948762  0.06209254  1
  C  C6  1  0.75488393  0.36078829  0.94968925  1
  C  C7  1  0.24637525  0.06210042  0.85628527  1
  C  C8  1  0.73320070  0.74772161  0.74704152  1
  C  C9  1  0.25808525  0.43686792  0.64308931  1
  Mo  Mo10  1  0.99955324  0.77717153  0.60021270  1
  Mo  Mo11  1  0.44801864  0.69863364  0.88960931  1
  Ir  Ir12  1  0.49362948  0.91710600  0.32332826  1
  Ir  Ir13  1  0.99319316  0.00436897  0.99408879  1
  Ta  Ta14  1  0.51349984  0.09468937  0.69675531  1
  Ta  Ta15  1  0.01386005  0.19219186  0.40261636  1
  Ti  Ti16  1  0.49233628  0.49347243  0.48527218  1
  Ti  Ti17  1  0.99184271  0.60570211  0.19561884  1
  W  W18  1  0.54517783  0.27406892  0.10609458  1
  W  W19  1  0.99584423  0.44382908  0.80243138  1
