# generated using pymatgen
data_TaTiNiMoWC5
_symmetry_space_group_name_H-M   'P 1'
_cell_length_a   5.35005513
_cell_length_b   5.32499150
_cell_length_c   8.14990852
_cell_angle_alpha   108.95687832
_cell_angle_beta   108.43524670
_cell_angle_gamma   80.31476962
_symmetry_Int_Tables_number   1
_chemical_formula_structural   TaTiNiMoWC5
_chemical_formula_sum   'Ta2 Ti2 Ni2 Mo2 W2 C10'
_cell_volume   207.76498235
_cell_formula_units_Z   2
loop_
 _symmetry_equiv_pos_site_id
 _symmetry_equiv_pos_as_xyz
  1  'x, y, z'
loop_
 _atom_site_type_symbol
 _atom_site_label
 _atom_site_symmetry_multiplicity
 _atom_site_fract_x
 _atom_site_fract_y
 _atom_site_fract_z
 _atom_site_occupancy
  C  C0  1  0.76144541  0.15343517  0.55525578  1
  C  C1  1  0.25415312  0.84289766  0.45055684  1
  C  C2  1  0.74177841  0.55942032  0.34839868  1
  C  C3  1  0.25874127  0.25122699  0.24345405  1
  C  C4  1  0.74254326  0.95263451  0.14723242  1
  C  C5  1  0.23878299  0.66529260  0.04601481  1
  C  C6  1  0.76272223  0.34640068  0.95282525  1
  C  C7  1  0.24359431  0.05153277  0.85643576  1
  C  C8  1  0.75687722  0.74956624  0.75365907  1
  C  C9  1  0.25574248  0.44456889  0.64831489  1
  Mo  Mo10  1  0.97664924  0.76287422  0.58746430  1
  Mo  Mo11  1  0.49494083  0.72526998  0.89149380  1
  Ni  Ni12  1  0.45439847  0.88364160  0.27476786  1
  Ni  Ni13  1  0.00772147  0.01639792  0.02597073  1
  Ta  Ta14  1  0.51278691  0.10328478  0.69821875  1
  Ta  Ta15  1  0.00574593  0.18306324  0.39962320  1
  Ti  Ti16  1  0.49089115  0.49640790  0.49567634  1
  Ti  Ti17  1  0.99679886  0.60303333  0.19573898  1
  W  W18  1  0.51821930  0.31436447  0.11350117  1
  W  W19  1  0.02546713  0.39468675  0.81539732  1
