# generated using pymatgen
data_ZrTaTiWC4
_symmetry_space_group_name_H-M   'P 1'
_cell_length_a   6.32309512
_cell_length_b   6.31889940
_cell_length_c   4.46751773
_cell_angle_alpha   90.00000000
_cell_angle_beta   90.00000000
_cell_angle_gamma   90.03269466
_symmetry_Int_Tables_number   1
_chemical_formula_structural   ZrTaTiWC4
_chemical_formula_sum   'Zr2 Ta2 Ti2 W2 C8'
_cell_volume   178.49965056
_cell_formula_units_Z   2
loop_
 _symmetry_equiv_pos_site_id
 _symmetry_equiv_pos_as_xyz
  1  'x, y, z'
loop_
 _atom_site_type_symbol
 _atom_site_label
 _atom_site_symmetry_multiplicity
 _atom_site_fract_x
 _atom_site_fract_y
 _atom_site_fract_z
 _atom_site_occupancy
  C  C0  1  0.25314993  0.74886359  0.00000000  1
  C  C1  1  0.25480210  0.25124234  0.00000000  1
  C  C2  1  0.01089117  0.50030752  0.50000000  1
  C  C3  1  0.01108807  0.99959924  0.50000000  1
  C  C4  1  0.74873466  0.75147672  0.00000000  1
  C  C5  1  0.75037851  0.24881827  0.00000000  1
  C  C6  1  0.48667701  0.49959500  0.50000000  1
  C  C7  1  0.48629718  0.99958496  0.50000000  1
  Ta  Ta8  1  0.00991247  0.00179255  0.00000000  1
  Ta  Ta9  1  0.00407078  0.50480035  0.00000000  1
  Ti  Ti10  1  0.25184355  0.74970806  0.50000000  1
  Ti  Ti11  1  0.49210489  0.49924905  0.00000000  1
  W  W12  1  0.25058805  0.25563000  0.50000000  1
  W  W13  1  0.49721018  0.99227311  0.00000000  1
  Zr  Zr14  1  0.74594183  0.24871000  0.50000000  1
  Zr  Zr15  1  0.74630961  0.74834925  0.50000000  1
