# generated using pymatgen
data_Ti3C2
_symmetry_space_group_name_H-M   'P 1'
_cell_length_a   5.31869210
_cell_length_b   5.31120049
_cell_length_c   5.29523486
_cell_angle_alpha   99.75292394
_cell_angle_beta   109.77469753
_cell_angle_gamma   59.95332903
_symmetry_Int_Tables_number   1
_chemical_formula_structural   Ti3C2
_chemical_formula_sum   'Ti6 C4'
_cell_volume   121.84636042
_cell_formula_units_Z   2
loop_
 _symmetry_equiv_pos_site_id
 _symmetry_equiv_pos_as_xyz
  1  'x, y, z'
loop_
 _atom_site_type_symbol
 _atom_site_label
 _atom_site_symmetry_multiplicity
 _atom_site_fract_x
 _atom_site_fract_y
 _atom_site_fract_z
 _atom_site_occupancy
  C  C0  1  0.16767012  0.66465976  0.00000000  1
  C  C1  1  0.83232988  0.33534024  0.00000000  1
  C  C2  1  0.00000000  0.00000000  0.50000000  1
  C  C3  1  0.50000000  0.00000000  0.00000000  1
  Ti  Ti4  1  0.40793591  0.67990582  0.76618981  1
  Ti  Ti5  1  0.91215828  0.67990582  0.23381019  1
  Ti  Ti6  1  0.59206409  0.32009418  0.23381019  1
  Ti  Ti7  1  0.08784172  0.32009418  0.76618981  1
  Ti  Ti8  1  0.23435380  0.00000000  0.24262892  1
  Ti  Ti9  1  0.76564620  0.00000000  0.75737108  1
