# generated using pymatgen
data_Ti2C
_symmetry_space_group_name_H-M   'P 1'
_cell_length_a   5.35304370
_cell_length_b   5.26029445
_cell_length_c   5.36927585
_cell_angle_alpha   101.07133900
_cell_angle_beta   112.17320237
_cell_angle_gamma   59.41500543
_symmetry_Int_Tables_number   1
_chemical_formula_structural   Ti2C
_chemical_formula_sum   'Ti6 C3'
_cell_volume   120.53132707
_cell_formula_units_Z   3
loop_
 _symmetry_equiv_pos_site_id
 _symmetry_equiv_pos_as_xyz
  1  'x, y, z'
loop_
 _atom_site_type_symbol
 _atom_site_label
 _atom_site_symmetry_multiplicity
 _atom_site_fract_x
 _atom_site_fract_y
 _atom_site_fract_z
 _atom_site_occupancy
  C  C0  1  0.16774581  0.66450838  0.50000000  1
  C  C1  1  0.83225419  0.33549162  0.50000000  1
  C  C2  1  0.00000000  0.00000000  0.00000000  1
  Ti  Ti3  1  0.40390551  0.66716040  0.26405238  1
  Ti  Ti4  1  0.92893409  0.66716040  0.73594762  1
  Ti  Ti5  1  0.59609449  0.33283960  0.73594762  1
  Ti  Ti6  1  0.07106591  0.33283960  0.26405238  1
  Ti  Ti7  1  0.23110562  0.00000000  0.75865288  1
  Ti  Ti8  1  0.76889438  0.00000000  0.24134712  1
