# generated using pymatgen
data_Ti3C2
_symmetry_space_group_name_H-M   'P 1'
_cell_length_a   3.09489084
_cell_length_b   3.09489084
_cell_length_c   7.30206392
_cell_angle_alpha   90.00000000
_cell_angle_beta   90.00000000
_cell_angle_gamma   119.99999999
_symmetry_Int_Tables_number   1
_chemical_formula_structural   Ti3C2
_chemical_formula_sum   'Ti3 C2'
_cell_volume   60.57130538
_cell_formula_units_Z   1
loop_
 _symmetry_equiv_pos_site_id
 _symmetry_equiv_pos_as_xyz
  1  'x, y, z'
loop_
 _atom_site_type_symbol
 _atom_site_label
 _atom_site_symmetry_multiplicity
 _atom_site_fract_x
 _atom_site_fract_y
 _atom_site_fract_z
 _atom_site_occupancy
  C  C0  1  0.33333333  0.66666667  0.32343425  1
  C  C1  1  0.66666667  0.33333333  0.67656575  1
  Ti  Ti2  1  0.33333333  0.66666667  0.82163784  1
  Ti  Ti3  1  0.66666667  0.33333333  0.17836216  1
  Ti  Ti4  1  0.00000000  0.00000000  0.50000000  1
