# generated using pymatgen
data_Ti2C
_symmetry_space_group_name_H-M   'P 1'
_cell_length_a   8.94245777
_cell_length_b   4.28287540
_cell_length_c   3.06373978
_cell_angle_alpha   90.00000000
_cell_angle_beta   90.00000000
_cell_angle_gamma   90.00000000
_symmetry_Int_Tables_number   1
_chemical_formula_structural   Ti2C
_chemical_formula_sum   'Ti6 C3'
_cell_volume   117.33949459
_cell_formula_units_Z   3
loop_
 _symmetry_equiv_pos_site_id
 _symmetry_equiv_pos_as_xyz
  1  'x, y, z'
loop_
 _atom_site_type_symbol
 _atom_site_label
 _atom_site_symmetry_multiplicity
 _atom_site_fract_x
 _atom_site_fract_y
 _atom_site_fract_z
 _atom_site_occupancy
  C  C0  1  0.82101808  0.50000000  0.00000000  1
  C  C1  1  0.17898192  0.50000000  0.00000000  1
  C  C2  1  0.00000000  0.00000000  0.50000000  1
  Ti  Ti3  1  0.83974690  0.00000000  0.00000000  1
  Ti  Ti4  1  0.16025310  0.00000000  0.00000000  1
  Ti  Ti5  1  0.00000000  0.50000000  0.50000000  1
  Ti  Ti6  1  0.33807314  0.50000000  0.50000000  1
  Ti  Ti7  1  0.66192686  0.50000000  0.50000000  1
  Ti  Ti8  1  0.50000000  0.00000000  0.00000000  1
