# generated using pymatgen
data_Ti5C4
_symmetry_space_group_name_H-M   'P 1'
_cell_length_a   5.32383279
_cell_length_b   5.32383279
_cell_length_c   5.32383279
_cell_angle_alpha   132.18133973
_cell_angle_beta   99.45426980
_cell_angle_gamma   99.45426980
_symmetry_Int_Tables_number   1
_chemical_formula_structural   Ti5C4
_chemical_formula_sum   'Ti5 C4'
_cell_volume   102.22111181
_cell_formula_units_Z   1
loop_
 _symmetry_equiv_pos_site_id
 _symmetry_equiv_pos_as_xyz
  1  'x, y, z'
loop_
 _atom_site_type_symbol
 _atom_site_label
 _atom_site_symmetry_multiplicity
 _atom_site_fract_x
 _atom_site_fract_y
 _atom_site_fract_z
 _atom_site_occupancy
  C  C0  1  0.80260757  0.70315993  0.09944764  1
  C  C1  1  0.19739243  0.29684007  0.90055236  1
  C  C2  1  0.60371230  0.90055236  0.70315993  1
  C  C3  1  0.39628770  0.09944764  0.29684007  1
  Ti  Ti4  1  0.20260774  0.81402945  0.38857829  1
  Ti  Ti5  1  0.79739226  0.18597055  0.61142171  1
  Ti  Ti6  1  0.42545116  0.61142171  0.81402945  1
  Ti  Ti7  1  0.57454884  0.38857829  0.18597055  1
  Ti  Ti8  1  0.00000000  0.00000000  0.00000000  1
