# generated using pymatgen
data_Ti6C5
_symmetry_space_group_name_H-M   'P 1'
_cell_length_a   3.08770045
_cell_length_b   3.08770045
_cell_length_c   14.76871508
_cell_angle_alpha   90.00000000
_cell_angle_beta   90.00000000
_cell_angle_gamma   119.99999991
_symmetry_Int_Tables_number   1
_chemical_formula_structural   Ti6C5
_chemical_formula_sum   'Ti6 C5'
_cell_volume   121.93929117
_cell_formula_units_Z   1
loop_
 _symmetry_equiv_pos_site_id
 _symmetry_equiv_pos_as_xyz
  1  'x, y, z'
loop_
 _atom_site_type_symbol
 _atom_site_label
 _atom_site_symmetry_multiplicity
 _atom_site_fract_x
 _atom_site_fract_y
 _atom_site_fract_z
 _atom_site_occupancy
  C  C0  1  0.33333333  0.66666667  0.15976700  1
  C  C1  1  0.66666667  0.33333333  0.84023300  1
  C  C2  1  0.33333333  0.66666667  0.66880820  1
  C  C3  1  0.66666667  0.33333333  0.33119180  1
  C  C4  1  0.00000000  0.00000000  0.50000000  1
  Ti  Ti5  1  0.33333333  0.66666667  0.91177871  1
  Ti  Ti6  1  0.66666667  0.33333333  0.08822129  1
  Ti  Ti7  1  0.00000000  0.00000000  0.74780590  1
  Ti  Ti8  1  0.00000000  -0.00000000  0.25219410  1
  Ti  Ti9  1  0.33333333  0.66666667  0.41721420  1
  Ti  Ti10  1  0.66666667  0.33333333  0.58278580  1
