# generated using pymatgen
data_Ti5C3
_symmetry_space_group_name_H-M   'P 1'
_cell_length_a   8.07134544
_cell_length_b   8.07134544
_cell_length_c   8.07134544
_cell_angle_alpha   157.89773576
_cell_angle_beta   149.42161191
_cell_angle_gamma   38.05236573
_symmetry_Int_Tables_number   1
_chemical_formula_structural   Ti5C3
_chemical_formula_sum   'Ti5 C3'
_cell_volume   100.50392058
_cell_formula_units_Z   1
loop_
 _symmetry_equiv_pos_site_id
 _symmetry_equiv_pos_as_xyz
  1  'x, y, z'
loop_
 _atom_site_type_symbol
 _atom_site_label
 _atom_site_symmetry_multiplicity
 _atom_site_fract_x
 _atom_site_fract_y
 _atom_site_fract_z
 _atom_site_occupancy
  C  C0  1  0.80040708  0.30040708  0.50000000  1
  C  C1  1  0.19959292  0.69959292  0.50000000  1
  C  C2  1  0.00000000  0.50000000  0.50000000  1
  Ti  Ti3  1  0.29166459  0.29166459  0.00000000  1
  Ti  Ti4  1  0.70833541  0.70833541  0.00000000  1
  Ti  Ti5  1  0.09664119  0.09664119  0.00000000  1
  Ti  Ti6  1  0.90335881  0.90335881  0.00000000  1
  Ti  Ti7  1  0.50000000  0.50000000  0.00000000  1
