# generated using pymatgen
data_Ti5C3
_symmetry_space_group_name_H-M   'P 1'
_cell_length_a   9.65573848
_cell_length_b   5.28250165
_cell_length_c   6.94874043
_cell_angle_alpha   130.59278370
_cell_angle_beta   135.39395021
_cell_angle_gamma   23.94490436
_symmetry_Int_Tables_number   1
_chemical_formula_structural   Ti5C3
_chemical_formula_sum   'Ti5 C3'
_cell_volume   101.01447471
_cell_formula_units_Z   1
loop_
 _symmetry_equiv_pos_site_id
 _symmetry_equiv_pos_as_xyz
  1  'x, y, z'
loop_
 _atom_site_type_symbol
 _atom_site_label
 _atom_site_symmetry_multiplicity
 _atom_site_fract_x
 _atom_site_fract_y
 _atom_site_fract_z
 _atom_site_occupancy
  C  C0  1  0.90331149  0.00000000  0.60165549  1
  C  C1  1  0.09668851  0.00000000  0.39834451  1
  C  C2  1  0.50000000  0.00000000  0.00000000  1
  Ti  Ti3  1  0.19272490  0.00000000  0.78147674  1
  Ti  Ti4  1  0.80727510  0.00000000  0.21852326  1
  Ti  Ti5  1  0.39901588  0.00000000  0.61924666  1
  Ti  Ti6  1  0.60098412  0.00000000  0.38075334  1
  Ti  Ti7  1  0.00000000  0.00000000  0.00000000  1
