# generated using pymatgen
data_Ti6C5
_symmetry_space_group_name_H-M   'P 1'
_cell_length_a   5.32347472
_cell_length_b   5.31268966
_cell_length_c   5.32014921
_cell_angle_alpha   99.67441990
_cell_angle_beta   109.59793764
_cell_angle_gamma   59.93282351
_symmetry_Int_Tables_number   1
_chemical_formula_structural   Ti6C5
_chemical_formula_sum   'Ti6 C5'
_cell_volume   122.67403916
_cell_formula_units_Z   1
loop_
 _symmetry_equiv_pos_site_id
 _symmetry_equiv_pos_as_xyz
  1  'x, y, z'
loop_
 _atom_site_type_symbol
 _atom_site_label
 _atom_site_symmetry_multiplicity
 _atom_site_fract_x
 _atom_site_fract_y
 _atom_site_fract_z
 _atom_site_occupancy
  C  C0  1  0.33348009  0.33303982  0.50000000  1
  C  C1  1  0.66651991  0.66696018  0.50000000  1
  C  C2  1  0.16667499  0.66665002  0.00000000  1
  C  C3  1  0.83332501  0.33334998  0.00000000  1
  C  C4  1  0.00000000  0.00000000  0.50000000  1
  Ti  Ti5  1  0.58575443  0.35038803  0.25446600  1
  Ti  Ti6  1  0.06385753  0.35038803  0.74553400  1
  Ti  Ti7  1  0.41424557  0.64961197  0.74553400  1
  Ti  Ti8  1  0.93614247  0.64961197  0.25446600  1
  Ti  Ti9  1  0.23731356  0.00000000  0.26311008  1
  Ti  Ti10  1  0.76268644  0.00000000  0.73688992  1
