# generated using pymatgen
data_Ti4C3
_symmetry_space_group_name_H-M   'P 1'
_cell_length_a   10.12478793
_cell_length_b   5.29257763
_cell_length_c   5.30588602
_cell_angle_alpha   80.24536573
_cell_angle_beta   79.79718753
_cell_angle_gamma   16.96008318
_symmetry_Int_Tables_number   1
_chemical_formula_structural   Ti4C3
_chemical_formula_sum   'Ti4 C3'
_cell_volume   81.62686871
_cell_formula_units_Z   1
loop_
 _symmetry_equiv_pos_site_id
 _symmetry_equiv_pos_as_xyz
  1  'x, y, z'
loop_
 _atom_site_type_symbol
 _atom_site_label
 _atom_site_symmetry_multiplicity
 _atom_site_fract_x
 _atom_site_fract_y
 _atom_site_fract_z
 _atom_site_occupancy
  C  C0  1  0.75106415  0.00000000  0.24551985  1
  C  C1  1  0.24893585  0.00000000  0.75448015  1
  C  C2  1  0.00000000  0.00000000  0.50000000  1
  Ti  Ti3  1  0.37501414  0.00000000  0.38838617  1
  Ti  Ti4  1  0.62498586  0.00000000  0.61161383  1
  Ti  Ti5  1  0.86500396  0.00000000  0.86462241  1
  Ti  Ti6  1  0.13499604  0.00000000  0.13537759  1
