# generated using pymatgen
data_Ti4C3
_symmetry_space_group_name_H-M   'P 1'
_cell_length_a   5.31119812
_cell_length_b   5.31119812
_cell_length_c   5.31119812
_cell_angle_alpha   70.05522320
_cell_angle_beta   132.11007985
_cell_angle_gamma   132.11007985
_symmetry_Int_Tables_number   1
_chemical_formula_structural   Ti4C3
_chemical_formula_sum   'Ti4 C3'
_cell_volume   80.83612634
_cell_formula_units_Z   1
loop_
 _symmetry_equiv_pos_site_id
 _symmetry_equiv_pos_as_xyz
  1  'x, y, z'
loop_
 _atom_site_type_symbol
 _atom_site_label
 _atom_site_symmetry_multiplicity
 _atom_site_fract_x
 _atom_site_fract_y
 _atom_site_fract_z
 _atom_site_occupancy
  C  C0  1  0.50000000  0.75000000  0.25000000  1
  C  C1  1  0.50000000  0.25000000  0.75000000  1
  C  C2  1  0.00000000  0.50000000  0.50000000  1
  Ti  Ti3  1  0.50000000  0.00000000  0.50000000  1
  Ti  Ti4  1  0.50000000  0.50000000  0.00000000  1
  Ti  Ti5  1  0.00000000  0.73695495  0.73695495  1
  Ti  Ti6  1  0.00000000  0.26304505  0.26304505  1
