# generated using pymatgen
data_Ti6C5
_symmetry_space_group_name_H-M   'P 1'
_cell_length_a   8.66341144
_cell_length_b   12.99889223
_cell_length_c   4.32906635
_cell_angle_alpha   90.00000000
_cell_angle_beta   90.00000000
_cell_angle_gamma   90.00000000
_symmetry_Int_Tables_number   1
_chemical_formula_structural   Ti6C5
_chemical_formula_sum   'Ti24 C20'
_cell_volume   487.51673189
_cell_formula_units_Z   4
loop_
 _symmetry_equiv_pos_site_id
 _symmetry_equiv_pos_as_xyz
  1  'x, y, z'
loop_
 _atom_site_type_symbol
 _atom_site_label
 _atom_site_symmetry_multiplicity
 _atom_site_fract_x
 _atom_site_fract_y
 _atom_site_fract_z
 _atom_site_occupancy
  Ti  Ti0  1  0.99148127  0.00080510  0.00000000  1
  Ti  Ti1  1  0.98912304  0.16679069  0.50000000  1
  Ti  Ti2  1  0.25000000  0.99219249  0.50000000  1
  Ti  Ti3  1  0.25000000  0.17224401  0.00000000  1
  Ti  Ti4  1  0.50851873  0.00080510  0.00000000  1
  Ti  Ti5  1  0.51087696  0.16679069  0.50000000  1
  Ti  Ti6  1  0.75000000  0.99791438  0.50000000  1
  Ti  Ti7  1  0.75000000  0.16048505  0.00000000  1
  Ti  Ti8  1  0.01139283  0.33355568  0.00000000  1
  Ti  Ti9  1  0.98759260  0.49898126  0.50000000  1
  Ti  Ti10  1  0.25000000  0.33571551  0.50000000  1
  Ti  Ti11  1  0.25000000  0.50121963  0.00000000  1
  Ti  Ti12  1  0.48860717  0.33355568  0.00000000  1
  Ti  Ti13  1  0.51240740  0.49898126  0.50000000  1
  Ti  Ti14  1  0.75000000  0.33259432  0.50000000  1
  Ti  Ti15  1  0.75000000  0.50848998  0.00000000  1
  Ti  Ti16  1  0.00088151  0.66590090  0.00000000  1
  Ti  Ti17  1  0.99936295  0.83383260  0.50000000  1
  Ti  Ti18  1  0.25000000  0.67123788  0.50000000  1
  Ti  Ti19  1  0.25000000  0.82542400  0.00000000  1
  Ti  Ti20  1  0.49911849  0.66590090  0.00000000  1
  Ti  Ti21  1  0.50063705  0.83383260  0.50000000  1
  Ti  Ti22  1  0.75000000  0.66987114  0.50000000  1
  Ti  Ti23  1  0.75000000  0.83315231  0.00000000  1
  C  C24  1  0.00405905  0.16636322  0.00000000  1
  C  C25  1  0.00608558  0.00135152  0.50000000  1
  C  C26  1  0.75000000  0.16849711  0.50000000  1
  C  C27  1  0.75000000  0.00031996  0.00000000  1
  C  C28  1  0.49594095  0.16636322  0.00000000  1
  C  C29  1  0.49391442  0.00135152  0.50000000  1
  C  C30  1  0.25000000  0.33342666  0.00000000  1
  C  C31  1  0.00042654  0.49895985  0.00000000  1
  C  C32  1  0.00031854  0.33341665  0.50000000  1
  C  C33  1  0.75000000  0.49819989  0.50000000  1
  C  C34  1  0.49957346  0.49895985  0.00000000  1
  C  C35  1  0.49968146  0.33341665  0.50000000  1
  C  C36  1  0.25000000  0.83363165  0.50000000  1
  C  C37  1  0.25000000  0.66602530  0.00000000  1
  C  C38  1  0.00212610  0.83460803  0.00000000  1
  C  C39  1  0.00204739  0.66536041  0.50000000  1
  C  C40  1  0.75000000  0.83357601  0.50000000  1
  C  C41  1  0.75000000  0.66593094  0.00000000  1
  C  C42  1  0.49787390  0.83460803  0.00000000  1
  C  C43  1  0.49795261  0.66536041  0.50000000  1
