# generated using pymatgen
data_Ti6C5
_symmetry_space_group_name_H-M   'P 1'
_cell_length_a   8.67806266
_cell_length_b   13.00799176
_cell_length_c   4.31710621
_cell_angle_alpha   90.00000000
_cell_angle_beta   90.00000000
_cell_angle_gamma   89.96118032
_symmetry_Int_Tables_number   1
_chemical_formula_structural   Ti6C5
_chemical_formula_sum   'Ti24 C20'
_cell_volume   487.33282883
_cell_formula_units_Z   4
loop_
 _symmetry_equiv_pos_site_id
 _symmetry_equiv_pos_as_xyz
  1  'x, y, z'
loop_
 _atom_site_type_symbol
 _atom_site_label
 _atom_site_symmetry_multiplicity
 _atom_site_fract_x
 _atom_site_fract_y
 _atom_site_fract_z
 _atom_site_occupancy
  Ti  Ti0  1  0.00000000  0.00000000  0.00000000  1
  Ti  Ti1  1  0.00928456  0.16582265  0.50000000  1
  Ti  Ti2  1  0.24915012  0.00583218  0.50000000  1
  Ti  Ti3  1  0.25132750  0.16943955  -0.00000000  1
  Ti  Ti4  1  0.50000000  0.00000000  0.00000000  1
  Ti  Ti5  1  0.49155622  0.16091260  0.50000000  1
  Ti  Ti6  1  0.75084988  0.99416782  0.50000000  1
  Ti  Ti7  1  0.74874379  0.16703784  -0.00000000  1
  Ti  Ti8  1  0.99823849  0.33254410  -0.00000000  1
  Ti  Ti9  1  0.00000000  0.50000000  0.50000000  1
  Ti  Ti10  1  0.23913584  0.33424308  0.50000000  1
  Ti  Ti11  1  0.25185574  0.49829685  0.00000000  1
  Ti  Ti12  1  0.50241771  0.33165889  0.00000000  1
  Ti  Ti13  1  0.50000000  0.50000000  0.50000000  1
  Ti  Ti14  1  0.75971375  0.33999612  0.50000000  1
  Ti  Ti15  1  0.74814426  0.50170315  -0.00000000  1
  Ti  Ti16  1  0.00176151  0.66745590  0.00000000  1
  Ti  Ti17  1  0.99071544  0.83417735  0.50000000  1
  Ti  Ti18  1  0.24028625  0.66000388  0.50000000  1
  Ti  Ti19  1  0.25125621  0.83296216  0.00000000  1
  Ti  Ti20  1  0.49758229  0.66834111  -0.00000000  1
  Ti  Ti21  1  0.50844378  0.83908740  0.50000000  1
  Ti  Ti22  1  0.76086416  0.66575692  0.50000000  1
  Ti  Ti23  1  0.74867250  0.83056045  0.00000000  1
  C  C24  1  0.25093928  0.16682319  0.50000000  1
  C  C25  1  0.25013880  0.99769280  0.00000000  1
  C  C26  1  0.99763417  0.16672759  0.00000000  1
  C  C27  1  0.00000000  0.00000000  0.50000000  1
  C  C28  1  0.74986120  0.00230720  -0.00000000  1
  C  C29  1  0.50185671  0.16838031  0.00000000  1
  C  C30  1  0.50000000  0.00000000  0.50000000  1
  C  C31  1  0.25191431  0.50084230  0.50000000  1
  C  C32  1  0.25246822  0.33339493  0.00000000  1
  C  C33  1  0.00000000  0.50000000  0.00000000  1
  C  C34  1  0.99880051  0.33256357  0.50000000  1
  C  C35  1  0.74808569  0.49915770  0.50000000  1
  C  C36  1  0.74771092  0.33168008  0.00000000  1
  C  C37  1  0.50000000  0.50000000  0.00000000  1
  C  C38  1  0.25228908  0.66831992  0.00000000  1
  C  C39  1  0.00236583  0.83327241  -0.00000000  1
  C  C40  1  0.00119949  0.66743643  0.50000000  1
  C  C41  1  0.74906072  0.83317681  0.50000000  1
  C  C42  1  0.74753178  0.66660507  0.00000000  1
  C  C43  1  0.49814329  0.83161969  0.00000000  1
