# generated using pymatgen
data_Ti3C2
_symmetry_space_group_name_H-M   'P 1'
_cell_length_a   8.70966200
_cell_length_b   12.93610455
_cell_length_c   4.30012072
_cell_angle_alpha   90.00000000
_cell_angle_beta   90.00000000
_cell_angle_gamma   89.93912713
_symmetry_Int_Tables_number   1
_chemical_formula_structural   Ti3C2
_chemical_formula_sum   'Ti24 C16'
_cell_volume   484.49045039
_cell_formula_units_Z   8
loop_
 _symmetry_equiv_pos_site_id
 _symmetry_equiv_pos_as_xyz
  1  'x, y, z'
loop_
 _atom_site_type_symbol
 _atom_site_label
 _atom_site_symmetry_multiplicity
 _atom_site_fract_x
 _atom_site_fract_y
 _atom_site_fract_z
 _atom_site_occupancy
  Ti  Ti0  1  0.99991863  0.99921776  0.00000000  1
  Ti  Ti1  1  0.99835019  0.16438514  0.50000000  1
  Ti  Ti2  1  0.23535266  0.00046873  0.50000000  1
  Ti  Ti3  1  0.26193556  0.17113675  0.00000000  1
  Ti  Ti4  1  0.49937499  0.00194359  0.00000000  1
  Ti  Ti5  1  0.50163281  0.16171806  0.50000000  1
  Ti  Ti6  1  0.76275408  0.00166481  0.50000000  1
  Ti  Ti7  1  0.73708978  0.16472617  0.00000000  1
  Ti  Ti8  1  0.00758447  0.34054692  0.00000000  1
  Ti  Ti9  1  0.01164502  0.50036264  0.50000000  1
  Ti  Ti10  1  0.23884383  0.33127733  0.50000000  1
  Ti  Ti11  1  0.25279269  0.49932064  0.00000000  1
  Ti  Ti12  1  0.49307267  0.33327581  0.00000000  1
  Ti  Ti13  1  0.49171123  0.50488395  0.50000000  1
  Ti  Ti14  1  0.75926075  0.32550528  0.50000000  1
  Ti  Ti15  1  0.74731605  0.50466750  0.00000000  1
  Ti  Ti16  1  0.99955965  0.65992438  0.00000000  1
  Ti  Ti17  1  0.00097528  0.83576627  0.50000000  1
  Ti  Ti18  1  0.24918285  0.66721683  0.50000000  1
  Ti  Ti19  1  0.26126616  0.82782122  0.00000000  1
  Ti  Ti20  1  0.50106248  0.66528533  0.00000000  1
  Ti  Ti21  1  0.49919802  0.82924328  0.50000000  1
  Ti  Ti22  1  0.75309711  0.67542351  0.50000000  1
  Ti  Ti23  1  0.73731366  0.83065453  0.00000000  1
  C  C24  1  0.24898178  0.16376783  0.50000000  1
  C  C25  1  0.99933308  0.99984589  0.50000000  1
  C  C26  1  0.75081607  0.16762126  0.50000000  1
  C  C27  1  0.49890870  0.16620232  0.00000000  1
  C  C28  1  0.25166254  0.49956172  0.50000000  1
  C  C29  1  0.24994683  0.33106866  0.00000000  1
  C  C30  1  0.99537510  0.49920205  0.00000000  1
  C  C31  1  0.99594535  0.33272696  0.50000000  1
  C  C32  1  0.50766342  0.49473616  0.00000000  1
  C  C33  1  0.25083059  0.83763526  0.50000000  1
  C  C34  1  0.24871450  0.66900483  0.00000000  1
  C  C35  1  0.99828414  0.66763260  0.50000000  1
  C  C36  1  0.75002477  0.83686293  0.50000000  1
  C  C37  1  0.75200061  0.66700766  0.00000000  1
  C  C38  1  0.50009124  0.83831208  0.00000000  1
  C  C39  1  0.50113067  0.66570872  0.50000000  1
