# generated using pymatgen
data_Ti3C2
_symmetry_space_group_name_H-M   'P 1'
_cell_length_a   8.68741138
_cell_length_b   12.94058787
_cell_length_c   4.30704725
_cell_angle_alpha   90.00000000
_cell_angle_beta   90.00000000
_cell_angle_gamma   90.16614991
_symmetry_Int_Tables_number   1
_chemical_formula_structural   Ti3C2
_chemical_formula_sum   'Ti24 C16'
_cell_volume   484.19712186
_cell_formula_units_Z   8
loop_
 _symmetry_equiv_pos_site_id
 _symmetry_equiv_pos_as_xyz
  1  'x, y, z'
loop_
 _atom_site_type_symbol
 _atom_site_label
 _atom_site_symmetry_multiplicity
 _atom_site_fract_x
 _atom_site_fract_y
 _atom_site_fract_z
 _atom_site_occupancy
  Ti  Ti0  1  0.01031525  0.00102766  0.00000000  1
  Ti  Ti1  1  0.98678630  0.16635699  0.50000000  1
  Ti  Ti2  1  0.24122192  0.99724423  0.50000000  1
  Ti  Ti3  1  0.24135701  0.16679915  0.00000000  1
  Ti  Ti4  1  0.49396788  0.99934736  0.00000000  1
  Ti  Ti5  1  0.50822684  0.16742921  0.50000000  1
  Ti  Ti6  1  0.75713773  0.99948331  0.50000000  1
  Ti  Ti7  1  0.75489625  0.15997314  0.00000000  1
  Ti  Ti8  1  0.00807951  0.32790563  0.00000000  1
  Ti  Ti9  1  0.00981325  0.50084496  0.50000000  1
  Ti  Ti10  1  0.24882368  0.33899074  0.50000000  1
  Ti  Ti11  1  0.25948005  0.49631306  0.00000000  1
  Ti  Ti12  1  0.49048014  0.33733579  0.00000000  1
  Ti  Ti13  1  0.49013711  0.50017320  0.50000000  1
  Ti  Ti14  1  0.74688604  0.32784593  0.50000000  1
  Ti  Ti15  1  0.74196496  0.50211520  0.00000000  1
  Ti  Ti16  1  0.99149103  0.67295465  0.00000000  1
  Ti  Ti17  1  0.00146304  0.83451391  0.50000000  1
  Ti  Ti18  1  0.24887911  0.66660897  0.50000000  1
  Ti  Ti19  1  0.25293258  0.83971629  0.00000000  1
  Ti  Ti20  1  0.51126483  0.66490312  0.00000000  1
  Ti  Ti21  1  0.49985983  0.82592353  0.50000000  1
  Ti  Ti22  1  0.75265298  0.67272926  0.50000000  1
  Ti  Ti23  1  0.74986479  0.83012542  0.00000000  1
  C  C24  1  0.25612152  0.00396375  0.00000000  1
  C  C25  1  0.99988282  0.16771720  0.00000000  1
  C  C26  1  0.00063025  0.00094237  0.50000000  1
  C  C27  1  0.74497975  0.16391642  0.50000000  1
  C  C28  1  0.24852842  0.50122548  0.50000000  1
  C  C29  1  0.24986721  0.33073841  0.00000000  1
  C  C30  1  0.99117506  0.33794090  0.50000000  1
  C  C31  1  0.50386104  0.49879204  0.00000000  1
  C  C32  1  0.50131331  0.32918268  0.50000000  1
  C  C33  1  0.25224943  0.83474890  0.50000000  1
  C  C34  1  0.00112237  0.83250090  0.00000000  1
  C  C35  1  0.00015893  0.66335715  0.50000000  1
  C  C36  1  0.74846398  0.83637935  0.50000000  1
  C  C37  1  0.75215095  0.66359408  0.00000000  1
  C  C38  1  0.50172781  0.83826223  0.00000000  1
  C  C39  1  0.49978501  0.66674407  0.50000000  1
