# generated using pymatgen
data_Ti2C
_symmetry_space_group_name_H-M   'P 1'
_cell_length_a   8.50891035
_cell_length_b   12.96090550
_cell_length_c   4.29654576
_cell_angle_alpha   90.00000000
_cell_angle_beta   90.00000000
_cell_angle_gamma   89.76393042
_symmetry_Int_Tables_number   1
_chemical_formula_structural   Ti2C
_chemical_formula_sum   'Ti24 C12'
_cell_volume   473.83272027
_cell_formula_units_Z   12
loop_
 _symmetry_equiv_pos_site_id
 _symmetry_equiv_pos_as_xyz
  1  'x, y, z'
loop_
 _atom_site_type_symbol
 _atom_site_label
 _atom_site_symmetry_multiplicity
 _atom_site_fract_x
 _atom_site_fract_y
 _atom_site_fract_z
 _atom_site_occupancy
  Ti  Ti0  1  0.00279605  0.99296671  0.00000000  1
  Ti  Ti1  1  0.98790839  0.16879151  0.50000000  1
  Ti  Ti2  1  0.24756658  0.00198681  0.50000000  1
  Ti  Ti3  1  0.25734757  0.16301395  0.00000000  1
  Ti  Ti4  1  0.49420884  0.00010324  -0.00000000  1
  Ti  Ti5  1  0.50791476  0.16728441  0.50000000  1
  Ti  Ti6  1  0.75137318  0.00028570  0.50000000  1
  Ti  Ti7  1  0.74768022  0.17060145  0.00000000  1
  Ti  Ti8  1  0.00499368  0.33847230  -0.00000000  1
  Ti  Ti9  1  0.99420884  0.50010324  0.50000000  1
  Ti  Ti10  1  0.24898053  0.32678029  0.50000000  1
  Ti  Ti11  1  0.25137318  0.50028570  0.00000000  1
  Ti  Ti12  1  0.49531518  0.33144506  -0.00000000  1
  Ti  Ti13  1  0.50279605  0.49296671  0.50000000  1
  Ti  Ti14  1  0.75184797  0.33746623  0.50000000  1
  Ti  Ti15  1  0.74756658  0.50198681  0.00000000  1
  Ti  Ti16  1  0.00791476  0.66728441  0.00000000  1
  Ti  Ti17  1  0.99531518  0.83144506  0.50000000  1
  Ti  Ti18  1  0.24768022  0.67060145  0.50000000  1
  Ti  Ti19  1  0.25184797  0.83746623  0.00000000  1
  Ti  Ti20  1  0.48790839  0.66879151  0.00000000  1
  Ti  Ti21  1  0.50499368  0.83847230  0.50000000  1
  Ti  Ti22  1  0.75734757  0.66301395  0.50000000  1
  Ti  Ti23  1  0.74898053  0.82678029  0.00000000  1
  C  C24  1  0.24751083  0.00175496  0.00000000  1
  C  C25  1  0.99312868  0.00494451  0.50000000  1
  C  C26  1  0.50405509  0.16628790  0.00000000  1
  C  C27  1  0.50606816  0.99873768  0.50000000  1
  C  C28  1  0.00606816  0.49873768  0.00000000  1
  C  C29  1  0.00215040  0.32862360  0.50000000  1
  C  C30  1  0.74751083  0.50175496  0.50000000  1
  C  C31  1  0.49312868  0.50494451  0.00000000  1
  C  C32  1  0.49915390  0.33378703  0.50000000  1
  C  C33  1  0.99915390  0.83378703  0.00000000  1
  C  C34  1  0.00405509  0.66628790  0.50000000  1
  C  C35  1  0.50215040  0.82862360  0.00000000  1
