# generated using pymatgen
data_Ti2C
_symmetry_space_group_name_H-M   'P 1'
_cell_length_a   8.55703300
_cell_length_b   12.87365099
_cell_length_c   4.29251794
_cell_angle_alpha   90.00000000
_cell_angle_beta   90.00000000
_cell_angle_gamma   89.92477028
_symmetry_Int_Tables_number   1
_chemical_formula_structural   Ti2C
_chemical_formula_sum   'Ti24 C12'
_cell_volume   472.86446895
_cell_formula_units_Z   12
loop_
 _symmetry_equiv_pos_site_id
 _symmetry_equiv_pos_as_xyz
  1  'x, y, z'
loop_
 _atom_site_type_symbol
 _atom_site_label
 _atom_site_symmetry_multiplicity
 _atom_site_fract_x
 _atom_site_fract_y
 _atom_site_fract_z
 _atom_site_occupancy
  Ti  Ti0  1  0.99695638  0.99678527  0.00000000  1
  Ti  Ti1  1  0.99835676  0.17703361  0.50000000  1
  Ti  Ti2  1  0.24517552  0.00198544  0.50000000  1
  Ti  Ti3  1  0.24100884  0.16165456  0.00000000  1
  Ti  Ti4  1  0.49905670  0.99849250  0.00000000  1
  Ti  Ti5  1  0.49019836  0.17171245  0.50000000  1
  Ti  Ti6  1  0.75529417  0.00227165  0.50000000  1
  Ti  Ti7  1  0.76858410  0.16688312  0.00000000  1
  Ti  Ti8  1  0.98797863  0.34232748  0.00000000  1
  Ti  Ti9  1  0.99043775  0.49274361  0.50000000  1
  Ti  Ti10  1  0.25451218  0.33360115  0.50000000  1
  Ti  Ti11  1  0.25650148  0.49587912  0.00000000  1
  Ti  Ti12  1  0.50893655  0.33787238  0.00000000  1
  Ti  Ti13  1  0.50809453  0.49805253  0.50000000  1
  Ti  Ti14  1  0.75922602  0.33144644  0.50000000  1
  Ti  Ti15  1  0.75395027  0.49548870  0.00000000  1
  Ti  Ti16  1  0.00649819  0.66855917  0.00000000  1
  Ti  Ti17  1  0.99738541  0.82564643  0.50000000  1
  Ti  Ti18  1  0.24825735  0.67070599  0.50000000  1
  Ti  Ti19  1  0.24896774  0.83521369  0.00000000  1
  Ti  Ti20  1  0.49039686  0.66275927  0.00000000  1
  Ti  Ti21  1  0.50023641  0.82595180  0.50000000  1
  Ti  Ti22  1  0.75090368  0.67085524  0.50000000  1
  Ti  Ti23  1  0.74843699  0.84227231  0.00000000  1
  C  C24  1  0.24421070  0.17199129  0.50000000  1
  C  C25  1  0.24770446  0.00307198  0.00000000  1
  C  C26  1  0.74693563  0.00608631  0.00000000  1
  C  C27  1  0.50559404  0.49847233  0.00000000  1
  C  C28  1  0.50775807  0.32897187  0.50000000  1
  C  C29  1  0.24884939  0.83351659  0.50000000  1
  C  C30  1  0.24708930  0.65932084  0.00000000  1
  C  C31  1  0.99781889  0.83249479  0.00000000  1
  C  C32  1  0.99535691  0.65859795  0.50000000  1
  C  C33  1  0.74914276  0.83443563  0.50000000  1
  C  C34  1  0.50046198  0.83584450  0.00000000  1
  C  C35  1  0.50372700  0.66433535  0.50000000  1
