# generated using pymatgen
data_ZrTaTiNbWC5
_symmetry_space_group_name_H-M   'P 1'
_cell_length_a   7.07887798
_cell_length_b   7.08732266
_cell_length_c   8.98021813
_cell_angle_alpha   90.04930445
_cell_angle_beta   89.98140293
_cell_angle_gamma   89.86658351
_symmetry_Int_Tables_number   1
_chemical_formula_structural   ZrTaTiNbWC5
_chemical_formula_sum   'Zr4 Ta4 Ti4 Nb4 W4 C20'
_cell_volume   450.53875681
_cell_formula_units_Z   4
loop_
 _symmetry_equiv_pos_site_id
 _symmetry_equiv_pos_as_xyz
  1  'x, y, z'
loop_
 _atom_site_type_symbol
 _atom_site_label
 _atom_site_symmetry_multiplicity
 _atom_site_fract_x
 _atom_site_fract_y
 _atom_site_fract_z
 _atom_site_occupancy
  C  C0  1  0.39639163  0.20787863  0.74944821  1
  C  C1  1  0.49908479  0.49849747  0.00046435  1
  C  C2  1  0.39758080  0.21142512  0.24693196  1
  C  C3  1  0.49583198  0.50134458  0.49640316  1
  C  C4  1  0.59959478  0.80352975  0.74889530  1
  C  C5  1  0.69227417  0.12841856  -0.00003812  1
  C  C6  1  0.80598337  0.40192111  0.74771891  1
  C  C7  1  0.90137700  0.69668246  0.00543283  1
  C  C8  1  0.10242437  0.31202289  0.99631506  1
  C  C9  1  0.60225934  0.79687366  0.24953159  1
  C  C10  1  0.70060410  0.10899405  0.49904539  1
  C  C11  1  0.79914294  0.40983252  0.24352518  1
  C  C12  1  0.90385372  0.70520866  0.49305410  1
  C  C13  1  0.01287233  0.02113800  0.74345253  1
  C  C14  1  0.10299373  0.30992134  0.49949557  1
  C  C15  1  0.20764489  0.60496607  0.74458166  1
  C  C16  1  0.31321412  0.91077341  0.00351389  1
  C  C17  1  0.01670306  0.01317775  0.25435978  1
  C  C18  1  0.20069907  0.60569739  0.24901083  1
  C  C19  1  0.29916388  0.90499215  0.49713895  1
  Nb  Nb20  1  0.59040884  0.77208246  0.00516944  1
  Nb  Nb21  1  0.48843962  0.49100097  0.74597547  1
  Nb  Nb22  1  0.59101863  0.78913326  0.49958042  1
  Nb  Nb23  1  0.80530543  0.39095342  0.50250617  1
  Ta  Ta24  1  0.29831174  0.88992199  0.75234047  1
  Ta  Ta25  1  0.39298827  0.20067030  0.49901123  1
  Ta  Ta26  1  0.09859488  0.30890455  0.25522644  1
  Ta  Ta27  1  0.00245742  0.97983462  0.49724722  1
  Ti  Ti28  1  0.19658259  0.60238371  0.00393128  1
  Ti  Ti29  1  0.19740074  0.59860196  0.50204124  1
  Ti  Ti30  1  0.88964586  0.68359591  0.25117217  1
  Ti  Ti31  1  0.09862198  0.29568670  0.74561542  1
  W  W32  1  0.29558649  0.87061933  0.25298096  1
  W  W33  1  0.38774804  0.23028453  0.00064465  1
  W  W34  1  0.49394529  0.49507726  0.26020131  1
  W  W35  1  0.82910585  0.38853266  0.00088924  1
  Zr  Zr36  1  0.69310102  0.09342589  0.24665430  1
  Zr  Zr37  1  0.69492669  0.09360231  0.75295404  1
  Zr  Zr38  1  0.89927361  0.68754093  0.75294404  1
  Zr  Zr39  1  0.00684290  0.98485169  0.00463340  1
