# generated using pymatgen
data_ZrTaTiNbWC5
_symmetry_space_group_name_H-M   'P 1'
_cell_length_a   8.37065565
_cell_length_b   7.08412178
_cell_length_c   11.43582496
_cell_angle_alpha   89.93675809
_cell_angle_beta   95.78366565
_cell_angle_gamma   90.01872660
_symmetry_Int_Tables_number   1
_chemical_formula_structural   ZrTaTiNbWC5
_chemical_formula_sum   'Zr6 Ta6 Ti6 Nb6 W6 C30'
_cell_volume   674.67759433
_cell_formula_units_Z   6
loop_
 _symmetry_equiv_pos_site_id
 _symmetry_equiv_pos_as_xyz
  1  'x, y, z'
loop_
 _atom_site_type_symbol
 _atom_site_label
 _atom_site_symmetry_multiplicity
 _atom_site_fract_x
 _atom_site_fract_y
 _atom_site_fract_z
 _atom_site_occupancy
  C  C0  1  0.89178957  0.80154647  0.29746658  1
  C  C1  1  0.40768891  0.29110858  0.30350395  1
  C  C2  1  0.13105220  0.09788643  0.43176259  1
  C  C3  1  0.76816476  0.19968160  0.36664122  1
  C  C4  1  0.49972454  -0.00051973  0.50225912  1
  C  C5  1  0.23885704  0.79866052  0.63378705  1
  C  C6  1  0.86980566  0.90674211  0.56184608  1
  C  C7  1  0.26803423  0.69792193  0.37153551  1
  C  C8  1  0.00157784  0.49674232  0.50249106  1
  C  C9  1  0.63227741  0.60305447  0.43875007  1
  C  C10  1  0.36979253  0.39953528  0.56616064  1
  C  C11  1  0.10069585  0.20257655  0.69239170  1
  C  C12  1  0.73529935  0.30059939  0.62661653  1
  C  C13  1  0.46921768  0.09948930  0.76089629  1
  C  C14  1  0.19990750  0.89670241  0.90008402  1
  C  C15  1  0.83099455  0.00259875  0.83505072  1
  C  C16  1  0.56114700  0.80640470  0.96553302  1
  C  C17  1  0.96661526  0.60670083  0.75806168  1
  C  C18  1  0.59780052  0.69773557  0.69497183  1
  C  C19  1  0.33095789  0.50931642  0.82706877  1
  C  C20  1  0.05720825  0.30309859  0.96857071  1
  C  C21  1  0.69345313  0.38977173  0.90019696  1
  C  C22  1  0.43840345  0.19878043  0.03436437  1
  C  C23  1  0.14764072  -0.00036841  0.16605186  1
  C  C24  1  0.79618599  0.10232863  0.09676952  1
  C  C25  1  0.53509741  0.90541499  0.23012491  1
  C  C26  1  0.93151125  0.70358024  0.03116177  1
  C  C27  1  0.29269256  0.60475580  0.09243590  1
  C  C28  1  0.01135703  0.38341960  0.22459807  1
  C  C29  1  0.67257071  0.49494438  0.16249863  1
  Nb  Nb30  1  0.33940193  -0.00035743  0.34925348  1
  Nb  Nb31  1  0.07812224  0.79545387  0.47307639  1
  Nb  Nb32  1  0.21455829  0.39322845  0.41467926  1
  Nb  Nb33  1  0.65136087  0.00032576  0.67188371  1
  Nb  Nb34  1  0.03359537  0.89731748  0.72908982  1
  Nb  Nb35  1  0.51353931  0.50603470  0.00775761  1
  Ta  Ta36  1  0.71019940  0.90346003  0.40482060  1
  Ta  Ta37  1  0.80051830  0.60165919  0.60014030  1
  Ta  Ta38  1  0.83743292  0.49755323  0.32959456  1
  Ta  Ta39  1  0.58117477  0.30475643  0.46700657  1
  Ta  Ta40  1  0.52373158  0.40174523  0.73506637  1
  Ta  Ta41  1  0.37421186  0.89964435  0.06619218  1
  Ti  Ti42  1  0.43597926  0.69654698  0.54128460  1
  Ti  Ti43  1  0.38686142  0.80357231  0.79910661  1
  Ti  Ti44  1  0.14337146  0.60156014  0.93363632  1
  Ti  Ti45  1  0.16641961  0.51183477  0.66638623  1
  Ti  Ti46  1  0.72415657  0.80376080  0.14247991  1
  Ti  Ti47  1  0.59099462  0.19224109  0.20891987  1
  W  W48  1  0.93741790  0.09316488  0.24514237  1
  W  W49  1  0.95960055  0.19908888  0.52843676  1
  W  W50  1  0.29275923  0.09128784  0.60377848  1
  W  W51  1  0.63697432  0.09290034  0.95458304  1
  W  W52  1  0.00626454  0.98042308  0.99148821  1
  W  W53  1  0.88128100  0.42765002  0.05590359  1
  Zr  Zr54  1  0.46783799  0.60180676  0.27412686  1
  Zr  Zr55  1  0.76073720  0.70170206  0.86633825  1
  Zr  Zr56  1  0.90137082  0.29917988  0.79351169  1
  Zr  Zr57  1  0.26264782  0.20456947  0.86478308  1
  Zr  Zr58  1  0.10183212  0.70183048  0.20282129  1
  Zr  Zr59  1  0.23812592  0.29584902  0.13506090  1
