# generated using pymatgen
data_ZrTaTiNbWC5
_symmetry_space_group_name_H-M   'P 1'
_cell_length_a   8.37432623
_cell_length_b   9.49475679
_cell_length_c   11.41437177
_cell_angle_alpha   97.96189840
_cell_angle_beta   90.06513101
_cell_angle_gamma   93.59831432
_symmetry_Int_Tables_number   1
_chemical_formula_structural   ZrTaTiNbWC5
_chemical_formula_sum   'Zr8 Ta8 Ti8 Nb8 W8 C40'
_cell_volume   897.01663469
_cell_formula_units_Z   8
loop_
 _symmetry_equiv_pos_site_id
 _symmetry_equiv_pos_as_xyz
  1  'x, y, z'
loop_
 _atom_site_type_symbol
 _atom_site_label
 _atom_site_symmetry_multiplicity
 _atom_site_fract_x
 _atom_site_fract_y
 _atom_site_fract_z
 _atom_site_occupancy
  C  C0  1  0.19003200  0.62222366  0.68971686  1
  C  C1  1  0.86761521  0.43286035  0.58653275  1
  C  C2  1  0.12162614  0.57685832  0.41544571  1
  C  C3  1  0.04505310  0.52758917  0.13398315  1
  C  C4  1  0.26774967  0.67083368  0.96521936  1
  C  C5  1  0.96589813  0.47613834  0.86272577  1
  C  C6  1  0.00570636  0.17671969  0.71524737  1
  C  C7  1  0.53662896  0.53165596  0.63584501  1
  C  C8  1  0.24118878  0.33605355  0.53673166  1
  C  C9  1  0.93991948  0.12955594  0.43369308  1
  C  C10  1  0.75163982  0.67757399  0.46398067  1
  C  C11  1  0.46216910  0.47866929  0.36647578  1
  C  C12  1  0.16209154  0.27507078  0.26338164  1
  C  C13  1  0.86482521  0.07445820  0.15915880  1
  C  C14  1  0.67734170  0.62008835  0.18863691  1
  C  C15  1  0.38858053  0.43037838  0.09190077  1
  C  C16  1  0.08846156  0.22711466  0.99067665  1
  C  C17  1  0.60620373  0.58209623  0.91166291  1
  C  C18  1  0.31159506  0.38404335  0.80777204  1
  C  C19  1  0.37548370  0.07383306  0.65813726  1
  C  C20  1  0.05808889  0.87244295  0.56027537  1
  C  C21  1  0.57788595  0.23302921  0.48750617  1
  C  C22  1  0.29910219  0.02487878  0.39077765  1
  C  C23  1  0.00318336  0.82762963  0.29174492  1
  C  C24  1  0.81139800  0.37604659  0.31130402  1
  C  C25  1  0.50884080  0.18573978  0.20899139  1
  C  C26  1  0.21020220  0.97915299  0.10926699  1
  C  C27  1  0.91687087  0.77525154  0.00985720  1
  C  C28  1  0.73965944  0.32205537  0.03982816  1
  C  C29  1  0.44397887  0.11950788  0.94095805  1
  C  C30  1  0.13038628  0.92168961  0.83959133  1
  C  C31  1  0.82883423  0.72596709  0.73871968  1
  C  C32  1  0.66307650  0.28123663  0.76302284  1
  C  C33  1  0.70964183  0.96852798  0.61137985  1
  C  C34  1  0.41354462  0.77054579  0.51264591  1
  C  C35  1  0.63621770  0.91647165  0.34523221  1
  C  C36  1  0.33937136  0.71710572  0.23963311  1
  C  C37  1  0.56592711  0.87230397  0.05679370  1
  C  C38  1  0.79173561  0.03152357  0.88950041  1
  C  C39  1  0.49394670  0.82305888  0.78897604  1
  Nb  Nb40  1  0.82825115  0.54826432  0.01994400  1
  Nb  Nb41  1  0.57594195  0.04288903  0.77585955  1
  Nb  Nb42  1  0.09329361  0.39702519  0.70672082  1
  Nb  Nb43  1  0.08180671  0.05886428  0.27606141  1
  Nb  Nb44  1  0.27969599  0.84888246  0.68378906  1
  Nb  Nb45  1  0.97429079  0.65505147  0.58121419  1
  Nb  Nb46  1  0.35202472  0.90541995  0.94817281  1
  Nb  Nb47  1  0.04719151  0.70234935  0.84599371  1
  Ta  Ta48  1  0.45529579  0.32494553  0.64846141  1
  Ta  Ta49  1  0.03378235  0.35557081  0.42726099  1
  Ta  Ta50  1  0.25388440  0.49565060  0.24499274  1
  Ta  Ta51  1  0.95030218  0.30547370  0.15204357  1
  Ta  Ta52  1  0.16453945  0.44489633  0.97289640  1
  Ta  Ta53  1  0.92725851  0.94988756  0.72415532  1
  Ta  Ta54  1  0.38000845  0.25960947  0.37212976  1
  Ta  Ta55  1  0.00103673  -0.00232296  -0.00086457  1
  Ti  Ti56  1  0.59876531  0.38643137  0.18890364  1
  Ti  Ti57  1  0.65476966  0.10265021  0.04597430  1
  Ti  Ti58  1  0.62555490  0.74436381  0.63369429  1
  Ti  Ti59  1  0.83644939  0.88649165  0.45512888  1
  Ti  Ti60  1  0.46688439  0.64690236  0.06571344  1
  Ti  Ti61  1  0.29848151  0.19188986  0.09956123  1
  Ti  Ti62  1  0.39445275  0.61069785  0.80275788  1
  Ti  Ti63  1  0.12370760  0.74183753  0.12186190  1
  W  W64  1  0.76593029  0.50428753  0.76038074  1
  W  W65  1  0.68789090  0.44851715  0.45853371  1
  W  W66  1  0.48543373  0.96938978  0.50608461  1
  W  W67  1  0.31250786  0.57573523  0.53610670  1
  W  W68  1  0.86703060  0.25866235  0.87234380  1
  W  W69  1  0.56437728  0.67523031  0.33502508  1
  W  W70  1  0.69319284  0.78463710  0.89631233  1
  W  W71  1  0.18350153  0.80036791  0.40874947  1
  Zr  Zr72  1  0.52135656  0.35428839  0.92473798  1
  Zr  Zr73  1  0.79443571  0.19816484  0.59775471  1
  Zr  Zr74  1  0.72495710  0.14346560  0.32332913  1
  Zr  Zr75  1  0.42264765  0.93547072  0.22543052  1
  Zr  Zr76  1  0.15366597  0.09808851  0.55266972  1
  Zr  Zr77  1  0.77977314  0.85302139  0.17132097  1
  Zr  Zr78  1  0.22559700  0.14902772  0.82456264  1
  Zr  Zr79  1  0.90832978  0.59994321  0.30130201  1
