# generated using pymatgen
data_ZrTaTiNbWC5
_symmetry_space_group_name_H-M   'P 1'
_cell_length_a   10.49223553
_cell_length_b   10.48992899
_cell_length_c   10.49905687
_cell_angle_alpha   97.80373327
_cell_angle_beta   97.82028776
_cell_angle_gamma   97.84997249
_symmetry_Int_Tables_number   1
_chemical_formula_structural   ZrTaTiNbWC5
_chemical_formula_sum   'Zr10 Ta10 Ti10 Nb10 W10 C50'
_cell_volume   1119.96478857
_cell_formula_units_Z   10
loop_
 _symmetry_equiv_pos_site_id
 _symmetry_equiv_pos_as_xyz
  1  'x, y, z'
loop_
 _atom_site_type_symbol
 _atom_site_label
 _atom_site_symmetry_multiplicity
 _atom_site_fract_x
 _atom_site_fract_y
 _atom_site_fract_z
 _atom_site_occupancy
  C  C0  1  0.84618919  0.45397564  0.44432085  1
  C  C1  1  0.74503384  0.34623074  0.15077092  1
  C  C2  1  0.84026588  0.65067791  0.25454521  1
  C  C3  1  0.74571893  0.55091265  0.95055094  1
  C  C4  1  0.84837098  0.84598761  0.04651951  1
  C  C5  1  0.65527417  0.45636666  0.64767264  1
  C  C6  1  0.75333242  0.74902575  0.74353827  1
  C  C7  1  0.85148104  0.05245025  0.84849799  1
  C  C8  1  0.55118879  0.34943385  0.35209585  1
  C  C9  1  0.65585976  0.65120263  0.44984234  1
  C  C10  1  0.75349209  0.95031425  0.54803569  1
  C  C11  1  0.84867411  0.24759284  0.65015781  1
  C  C12  1  0.55111096  0.55173501  0.14905831  1
  C  C13  1  0.64902453  0.84397703  0.25162140  1
  C  C14  1  0.75155243  0.15515425  0.35534532  1
  C  C15  1  0.54567822  0.74781571  0.95334394  1
  C  C16  1  0.64746635  0.05277900  0.05246539  1
  C  C17  1  0.45715147  0.45647287  0.85410126  1
  C  C18  1  0.35101348  0.34783993  0.53819094  1
  C  C19  1  0.45232679  0.65341879  0.64809081  1
  C  C20  1  0.54233340  0.94992905  0.74325514  1
  C  C21  1  0.65515043  0.24863389  0.85281591  1
  C  C22  1  0.34980882  0.54902455  0.35285646  1
  C  C23  1  0.44886437  0.84999953  0.44848117  1
  C  C24  1  0.55027170  0.14827456  0.54323238  1
  C  C25  1  0.24953088  0.45242039  0.05233705  1
  C  C26  1  0.35396627  0.74937594  0.15412635  1
  C  C27  1  0.44936455  0.04754452  0.25335368  1
  C  C28  1  0.35342446  0.95173137  0.94857364  1
  C  C29  1  0.45598929  0.25172191  0.05442685  1
  C  C30  1  0.14355443  0.34868349  0.75168567  1
  C  C31  1  0.25025217  0.65238523  0.85114606  1
  C  C32  1  0.14791555  0.55334835  0.54185480  1
  C  C33  1  0.25491535  0.84930962  0.65360131  1
  C  C34  1  0.35025736  0.14104414  0.74657581  1
  C  C35  1  0.05030205  0.44722717  0.25387802  1
  C  C36  1  0.15157266  0.75042660  0.35615136  1
  C  C37  1  0.25196116  0.04747805  0.44526145  1
  C  C38  1  0.95174269  0.34429856  0.94778946  1
  C  C39  1  0.04752171  0.64782135  0.04629366  1
  C  C40  1  0.15144364  0.95636971  0.15603034  1
  C  C41  1  0.25103383  0.25028813  0.25124967  1
  C  C42  1  0.14559440  0.14610608  0.95039762  1
  C  C43  1  0.94853595  0.55497048  0.74822724  1
  C  C44  1  0.04549900  0.85001362  0.84502350  1
  C  C45  1  0.94852855  0.74877121  0.55052129  1
  C  C46  1  0.04469235  0.04690398  0.65136135  1
  C  C47  1  0.95213458  0.95343188  0.35882983  1
  C  C48  1  0.04712576  0.24927091  0.44122016  1
  C  C49  1  0.95548537  0.15215999  0.15265452  1
  Nb  Nb50  1  0.09740214  0.89960466  0.50411789  1
  Nb  Nb51  1  0.59699888  0.60245082  0.80364369  1
  Nb  Nb52  1  0.59945812  0.80234299  0.60444547  1
  Nb  Nb53  1  0.70263015  0.10045933  0.69820646  1
  Nb  Nb54  1  0.79602960  0.40414467  0.80021207  1
  Nb  Nb55  1  0.60198569  0.00051531  0.39939775  1
  Nb  Nb56  1  0.50131781  0.10358442  0.89678323  1
  Nb  Nb57  1  0.20158999  0.59878690  0.20561791  1
  Nb  Nb58  1  0.40680090  0.40514789  0.19263793  1
  Nb  Nb59  1  0.30532476  0.10174542  0.10479387  1
  Ta  Ta60  1  0.89867335  0.70031751  0.90038568  1
  Ta  Ta61  1  0.99776569  0.00340470  0.99846907  1
  Ta  Ta62  1  0.09878408  0.30203423  0.10274593  1
  Ta  Ta63  1  0.10230481  0.50216760  0.90024237  1
  Ta  Ta64  1  0.50018174  0.70190645  0.30464451  1
  Ta  Ta65  1  0.60320385  0.20349334  0.20051320  1
  Ta  Ta66  1  0.49766776  0.90111172  0.10148083  1
  Ta  Ta67  1  0.29832177  0.70714866  0.50393460  1
  Ta  Ta68  1  0.50530056  0.50162845  0.49773924  1
  Ta  Ta69  1  0.19697814  0.99838108  0.79645028  1
  Ti  Ti70  1  0.09042536  0.70368400  0.70046643  1
  Ti  Ti71  1  0.80082531  0.60044349  0.60169811  1
  Ti  Ti72  1  0.90405319  0.10277481  0.49908325  1
  Ti  Ti73  1  0.90230722  0.29695114  0.29863468  1
  Ti  Ti74  1  0.79959261  0.19931929  -0.00338207  1
  Ti  Ti75  1  0.70540331  0.29892594  0.49825016  1
  Ti  Ti76  1  0.70300640  0.49909159  0.30452926  1
  Ti  Ti77  1  0.39937157  0.60245803  0.00401903  1
  Ti  Ti78  1  0.60282301  0.39917407  0.00209963  1
  Ti  Ti79  1  0.30116528  0.89888633  0.30172839  1
  W  W80  1  0.00405344  0.58956761  0.39787199  1
  W  W81  1  0.10307219  0.09355213  0.30395136  1
  W  W82  1  0.89269337  0.90032433  0.70200759  1
  W  W83  1  0.99295329  0.19748829  0.79043574  1
  W  W84  1  0.80381331  0.79657053  0.41183621  1
  W  W85  1  0.69103718  0.69244805  0.09548780  1
  W  W86  1  0.39812389  0.79363415  0.80953627  1
  W  W87  1  0.39719503  0.00073837  0.58779771  1
  W  W88  1  0.40921191  0.19996771  0.39286706  1
  W  W89  1  0.20346798  0.39243009  0.39254330  1
  Zr  Zr90  1  0.00007129  0.79775486  0.20660710  1
  Zr  Zr91  1  0.99666797  0.40088421  0.59671017  1
  Zr  Zr92  1  0.80126465  0.00067796  0.20262404  1
  Zr  Zr93  1  0.69631741  0.90212539  0.89835560  1
  Zr  Zr94  1  0.89600157  0.49563514  0.10272741  1
  Zr  Zr95  1  0.50159843  0.29943340  0.69700709  1
  Zr  Zr96  1  0.19858022  0.80306252  0.00228419  1
  Zr  Zr97  1  0.30091900  0.29888898  0.90136608  1
  Zr  Zr98  1  0.19886501  0.19843296  0.59570279  1
  Zr  Zr99  1  0.29742168  0.50197086  0.69671446  1
