# generated using pymatgen
data_TaTiMoWAuC5
_symmetry_space_group_name_H-M   'P 1'
_cell_length_a   5.45669395
_cell_length_b   5.44477597
_cell_length_c   8.41182351
_cell_angle_alpha   106.42106976
_cell_angle_beta   107.66833734
_cell_angle_gamma   80.04347543
_symmetry_Int_Tables_number   1
_chemical_formula_structural   TaTiMoWAuC5
_chemical_formula_sum   'Ta2 Ti2 Mo2 W2 Au2 C10'
_cell_volume   227.37747318
_cell_formula_units_Z   2
loop_
 _symmetry_equiv_pos_site_id
 _symmetry_equiv_pos_as_xyz
  1  'x, y, z'
loop_
 _atom_site_type_symbol
 _atom_site_label
 _atom_site_symmetry_multiplicity
 _atom_site_fract_x
 _atom_site_fract_y
 _atom_site_fract_z
 _atom_site_occupancy
  C  C0  1  0.77883811  0.16016978  0.56932313  1
  C  C1  1  0.24570682  0.85469247  0.46206791  1
  C  C2  1  0.74689849  0.54929051  0.35310942  1
  C  C3  1  0.26343961  0.29583477  0.26675148  1
  C  C4  1  0.73945936  0.96763449  0.15263179  1
  C  C5  1  0.22254442  0.61527493  0.02214017  1
  C  C6  1  0.74317215  0.36745746  0.94909731  1
  C  C7  1  0.26360722  0.03899058  0.85065626  1
  C  C8  1  0.74334943  0.72695408  0.73403096  1
  C  C9  1  0.25513591  0.43952010  0.64542176  1
  Mo  Mo10  1  0.96526046  0.77020104  0.58717869  1
  Mo  Mo11  1  0.47594905  0.69340707  0.85415403  1
  Au  Au12  1  0.47250499  0.89724396  0.28951806  1
  Au  Au13  1  0.99521060  0.00834609  0.00937635  1
  Ta  Ta14  1  0.53686879  0.10890396  0.70836993  1
  Ta  Ta15  1  0.02566954  0.19722714  0.42157913  1
  Ti  Ti16  1  0.48323209  0.52114826  0.50108877  1
  Ti  Ti17  1  0.97292951  0.61264419  0.16982632  1
  W  W18  1  0.51900700  0.32148357  0.14825473  1
  W  W19  1  0.05121645  0.35357557  0.80542382  1
