# generated using pymatgen
data_TaTiAgMoWC5
_symmetry_space_group_name_H-M   'P 1'
_cell_length_a   5.44774100
_cell_length_b   5.47301085
_cell_length_c   8.36337913
_cell_angle_alpha   107.75177004
_cell_angle_beta   108.25092319
_cell_angle_gamma   80.52778192
_symmetry_Int_Tables_number   1
_chemical_formula_structural   TaTiAgMoWC5
_chemical_formula_sum   'Ta2 Ti2 Ag2 Mo2 W2 C10'
_cell_volume   224.88006488
_cell_formula_units_Z   2
loop_
 _symmetry_equiv_pos_site_id
 _symmetry_equiv_pos_as_xyz
  1  'x, y, z'
loop_
 _atom_site_type_symbol
 _atom_site_label
 _atom_site_symmetry_multiplicity
 _atom_site_fract_x
 _atom_site_fract_y
 _atom_site_fract_z
 _atom_site_occupancy
  C  C0  1  0.77458359  0.15499862  0.56533582  1
  C  C1  1  0.23850779  0.84869316  0.45857974  1
  C  C2  1  0.74910073  0.54069265  0.35337063  1
  C  C3  1  0.26147189  0.29261062  0.26195557  1
  C  C4  1  0.73781827  0.96143694  0.14820652  1
  C  C5  1  0.23244446  0.61222530  0.02995879  1
  C  C6  1  0.74260586  0.37112180  0.94758627  1
  C  C7  1  0.26169766  0.04742215  0.84859804  1
  C  C8  1  0.74225125  0.73714328  0.73810399  1
  C  C9  1  0.25437283  0.44242430  0.64658870  1
  Mo  Mo10  1  0.96632576  0.76736433  0.58874253  1
  Mo  Mo11  1  0.47986622  0.70835463  0.86343314  1
  Ag  Ag12  1  0.47698628  0.89267863  0.28785158  1
  Ag  Ag13  1  0.00579119  0.01105523  0.01479057  1
  Ta  Ta14  1  0.53429061  0.11568753  0.70724571  1
  Ta  Ta15  1  0.01886121  0.18863087  0.41617680  1
  Ti  Ti16  1  0.47862305  0.52185592  0.50040007  1
  Ti  Ti17  1  0.97760248  0.61041090  0.17404681  1
  W  W18  1  0.51608299  0.31311841  0.14179229  1
  W  W19  1  0.05071588  0.36207473  0.80723646  1
