# generated using pymatgen
data_Mo2C
_symmetry_space_group_name_H-M   'P 1'
_cell_length_a   4.74625873
_cell_length_b   5.22488115
_cell_length_c   6.06339798
_cell_angle_alpha   90.00000000
_cell_angle_beta   90.00000000
_cell_angle_gamma   90.00000000
_symmetry_Int_Tables_number   1
_chemical_formula_structural   Mo2C
_chemical_formula_sum   'Mo8 C4'
_cell_volume   150.36401017
_cell_formula_units_Z   4
loop_
 _symmetry_equiv_pos_site_id
 _symmetry_equiv_pos_as_xyz
  1  'x, y, z'
loop_
 _atom_site_type_symbol
 _atom_site_label
 _atom_site_symmetry_multiplicity
 _atom_site_fract_x
 _atom_site_fract_y
 _atom_site_fract_z
 _atom_site_occupancy
  Mo  Mo0  1  0.24639604  0.07959907  0.12257495  1
  Mo  Mo1  1  0.74639604  0.92040093  0.37742505  1
  Mo  Mo2  1  0.25360396  0.57959907  0.37742505  1
  Mo  Mo3  1  0.75360396  0.42040093  0.12257495  1
  Mo  Mo4  1  0.24639604  0.57959907  0.87742505  1
  Mo  Mo5  1  0.74639604  0.42040093  0.62257495  1
  Mo  Mo6  1  0.25360396  0.07959907  0.62257495  1
  Mo  Mo7  1  0.75360396  0.92040093  0.87742505  1
  C  C8  1  0.50000000  0.75000000  0.12293437  1
  C  C9  1  0.00000000  0.25000000  0.37706563  1
  C  C10  1  0.50000000  0.25000000  0.87706563  1
  C  C11  1  0.00000000  0.75000000  0.62293437  1
