# generated using pymatgen
data_Ti5C4
_symmetry_space_group_name_H-M   'P 1'
_cell_length_a   6.86286803
_cell_length_b   6.85289202
_cell_length_c   8.65669551
_cell_angle_alpha   89.97796009
_cell_angle_beta   90.01949872
_cell_angle_gamma   90.12192589
_symmetry_Int_Tables_number   1
_chemical_formula_structural   Ti5C4
_chemical_formula_sum   'Ti20 C16'
_cell_volume   407.12768675
_cell_formula_units_Z   4
loop_
 _symmetry_equiv_pos_site_id
 _symmetry_equiv_pos_as_xyz
  1  'x, y, z'
loop_
 _atom_site_type_symbol
 _atom_site_label
 _atom_site_symmetry_multiplicity
 _atom_site_fract_x
 _atom_site_fract_y
 _atom_site_fract_z
 _atom_site_occupancy
  C  C0  1  0.20522993  0.60540033  0.24576462  1
  C  C1  1  0.29943071  0.89971252  0.49874771  1
  C  C2  1  0.20432645  0.60152158  0.75428737  1
  C  C3  1  0.40085118  0.19671555  0.24763731  1
  C  C4  1  0.50058291  0.50076466  0.49917186  1
  C  C5  1  0.70144615  0.09720457  0.49591742  1
  C  C6  1  0.89868777  0.70300563  0.49595912  1
  C  C7  1  0.39975809  0.19965215  0.75276601  1
  C  C8  1  0.59877598  0.79883595  0.75296062  1
  C  C9  1  0.69877353  0.09436764  0.00346418  1
  C  C10  1  0.79576794  0.40211793  0.24717205  1
  C  C11  1  0.89838406  0.70379721  0.00403230  1
  C  C12  1  0.09890943  0.29808296  0.49792202  1
  C  C13  1  0.79740206  0.40068655  0.75199674  1
  C  C14  1  0.00024405  0.00028475  0.75090444  1
  C  C15  1  0.10059280  0.29716765  0.00163679  1
  Ti  Ti16  1  0.99649255  0.00054330  0.51024423  1
  Ti  Ti17  1  0.10304735  0.30031449  0.74943949  1
  Ti  Ti18  1  0.98963401  0.00360039  0.98997203  1
  Ti  Ti19  1  0.10707414  0.30853476  0.24972396  1
  Ti  Ti20  1  0.19893899  0.60061888  0.50025271  1
  Ti  Ti21  1  0.30017072  0.89815852  0.74029917  1
  Ti  Ti22  1  0.39746749  0.19936147  0.50021311  1
  Ti  Ti23  1  0.49906024  0.49923178  0.73956468  1
  Ti  Ti24  1  0.69589577  0.10442985  0.75007050  1
  Ti  Ti25  1  0.18864649  0.59588597  0.00010635  1
  Ti  Ti26  1  0.29967377  0.89865072  0.26022496  1
  Ti  Ti27  1  0.39636090  0.19823824  0.99984155  1
  Ti  Ti28  1  0.49528183  0.49322351  0.25934115  1
  Ti  Ti29  1  0.60457603  0.80166637  0.50926269  1
  Ti  Ti30  1  0.69065032  0.11737018  0.24912111  1
  Ti  Ti31  1  0.80267804  0.39955923  0.50063825  1
  Ti  Ti32  1  0.90094853  0.69666526  0.75004684  1
  Ti  Ti33  1  0.61398948  0.80381393  0.99202109  1
  Ti  Ti34  1  0.81277735  0.39511422  0.99976945  1
  Ti  Ti35  1  0.90747294  0.68570134  0.24950609  1
