# generated using pymatgen
data_Ti5C3
_symmetry_space_group_name_H-M   'P 1'
_cell_length_a   6.82563319
_cell_length_b   6.84047159
_cell_length_c   8.60226169
_cell_angle_alpha   90.06458378
_cell_angle_beta   90.23398272
_cell_angle_gamma   89.88375304
_symmetry_Int_Tables_number   1
_chemical_formula_structural   Ti5C3
_chemical_formula_sum   'Ti20 C12'
_cell_volume   401.63990137
_cell_formula_units_Z   4
loop_
 _symmetry_equiv_pos_site_id
 _symmetry_equiv_pos_as_xyz
  1  'x, y, z'
loop_
 _atom_site_type_symbol
 _atom_site_label
 _atom_site_symmetry_multiplicity
 _atom_site_fract_x
 _atom_site_fract_y
 _atom_site_fract_z
 _atom_site_occupancy
  C  C0  1  0.30092392  0.90063845  0.00312035  1
  C  C1  1  0.39804203  0.20318639  0.25386568  1
  C  C2  1  0.70066688  0.10039720  0.49679342  1
  C  C3  1  0.90016401  0.69360832  0.49583727  1
  C  C4  1  0.39363525  0.20552264  0.74609191  1
  C  C5  1  0.49854951  0.50286745  0.00466976  1
  C  C6  1  0.59174763  0.79523385  0.74385686  1
  C  C7  1  0.70244564  0.10185657  0.00333536  1
  C  C8  1  0.90302348  0.69264084  0.00436470  1
  C  C9  1  0.00355366  0.00189348  0.25244645  1
  C  C10  1  0.80370269  0.39998885  0.75004601  1
  C  C11  1  0.00485071  0.99769313  0.74694939  1
  Ti  Ti12  1  0.98401014  0.98801793  0.49898044  1
  Ti  Ti13  1  0.09585072  0.28883456  0.74687059  1
  Ti  Ti14  1  0.99205893  0.98586111  0.00080174  1
  Ti  Ti15  1  0.10627070  0.28989648  0.25709396  1
  Ti  Ti16  1  0.19699561  0.60159538  0.49035742  1
  Ti  Ti17  1  0.30206328  0.91420956  0.75874955  1
  Ti  Ti18  1  0.41485689  0.20616068  0.49881973  1
  Ti  Ti19  1  0.50347984  0.49447911  0.75817877  1
  Ti  Ti20  1  0.70088942  0.09969470  0.74904114  1
  Ti  Ti21  1  0.20468687  0.60817233  0.00235860  1
  Ti  Ti22  1  0.29530281  0.91682064  0.24615259  1
  Ti  Ti23  1  0.41363866  0.19815275  0.00303057  1
  Ti  Ti24  1  0.48259372  0.49965643  0.24996764  1
  Ti  Ti25  1  0.60688079  0.80081918  0.49999696  1
  Ti  Ti26  1  0.70281014  0.10451200  0.24968478  1
  Ti  Ti27  1  0.80517722  0.40111753  0.50778519  1
  Ti  Ti28  1  0.89073064  0.70126506  0.74767465  1
  Ti  Ti29  1  0.60054725  0.79891875  0.99025426  1
  Ti  Ti30  1  0.79417035  0.40543337  0.99146980  1
  Ti  Ti31  1  0.90568060  0.70085526  0.25135444  1
