# generated using pymatgen
data_Ti4C3
_symmetry_space_group_name_H-M   'P 1'
_cell_length_a   6.14766288
_cell_length_b   6.84275259
_cell_length_c   8.07429037
_cell_angle_alpha   85.53381288
_cell_angle_beta   79.22929032
_cell_angle_gamma   77.01852018
_symmetry_Int_Tables_number   1
_chemical_formula_structural   Ti4C3
_chemical_formula_sum   'Ti16 C12'
_cell_volume   324.92034296
_cell_formula_units_Z   4
loop_
 _symmetry_equiv_pos_site_id
 _symmetry_equiv_pos_as_xyz
  1  'x, y, z'
loop_
 _atom_site_type_symbol
 _atom_site_label
 _atom_site_symmetry_multiplicity
 _atom_site_fract_x
 _atom_site_fract_y
 _atom_site_fract_z
 _atom_site_occupancy
  C  C0  1  0.09564104  0.68344530  0.93342938  1
  C  C1  1  0.59758315  0.68246462  0.92794540  1
  C  C2  1  0.28150630  0.06483274  0.81113832  1
  C  C3  1  0.78035396  0.06403867  0.81075424  1
  C  C4  1  0.15419358  0.80712811  0.56239906  1
  C  C5  1  0.53483471  0.56312472  0.31673729  1
  C  C6  1  0.90725813  0.31499514  0.06293367  1
  C  C7  1  0.40446266  0.31463872  0.06183678  1
  C  C8  1  0.33926952  0.19368023  0.44132401  1
  C  C9  1  0.84251899  0.19266283  0.43927905  1
  C  C10  1  0.21786737  0.93595185  0.18907812  1
  C  C11  1  0.72104821  0.93291803  0.19280523  1
  Ti  Ti12  1  0.68653570  0.36564492  0.88919509  1
  Ti  Ti13  1  0.18231623  0.36802907  0.89397821  1
  Ti  Ti14  1  0.55994963  0.12717806  0.62551085  1
  Ti  Ti15  1  0.06757170  0.11456470  0.62310710  1
  Ti  Ti16  1  0.87925165  0.75727721  0.75482217  1
  Ti  Ti17  1  0.36094338  0.75837095  0.75711658  1
  Ti  Ti18  1  0.74784623  0.49347277  0.49263203  1
  Ti  Ti19  1  0.26009161  0.50697277  0.48948231  1
  Ti  Ti20  1  0.62340300  0.24793521  0.25353922  1
  Ti  Ti21  1  0.12839760  0.23868565  0.25277223  1
  Ti  Ti22  1  0.50107865  0.00053763  0.99637467  1
  Ti  Ti23  1  0.99856924  0.99903731  0.00087902  1
  Ti  Ti24  1  0.94337316  0.88742598  0.37035194  1
  Ti  Ti25  1  0.43166972  0.87725746  0.36611782  1
  Ti  Ti26  1  0.80277958  0.62986271  0.11872667  1
  Ti  Ti27  1  0.32468533  0.62786664  0.11573354  1
