# generated using pymatgen
data_HfZrTaTiWC5
_symmetry_space_group_name_H-M   'P 1'
_cell_length_a   8.42593546
_cell_length_b   9.56132543
_cell_length_c   11.49142580
_cell_angle_alpha   98.02153252
_cell_angle_beta   89.93148228
_cell_angle_gamma   93.66458545
_symmetry_Int_Tables_number   1
_chemical_formula_structural   HfZrTaTiWC5
_chemical_formula_sum   'Hf8 Zr8 Ta8 Ti8 W8 C40'
_cell_volume   914.82449096
_cell_formula_units_Z   8
loop_
 _symmetry_equiv_pos_site_id
 _symmetry_equiv_pos_as_xyz
  1  'x, y, z'
loop_
 _atom_site_type_symbol
 _atom_site_label
 _atom_site_symmetry_multiplicity
 _atom_site_fract_x
 _atom_site_fract_y
 _atom_site_fract_z
 _atom_site_occupancy
  C  C0  1  0.19386192  0.62188116  0.68357759  1
  C  C1  1  0.88081459  0.42750120  0.58540148  1
  C  C2  1  0.12306630  0.57719684  0.41422865  1
  C  C3  1  0.04444071  0.52467266  0.13712474  1
  C  C4  1  0.26508725  0.66962080  0.96415773  1
  C  C5  1  0.95570427  0.46807914  0.86241387  1
  C  C6  1  0.00545451  0.17276829  0.71698257  1
  C  C7  1  0.53802431  0.53074196  0.63933415  1
  C  C8  1  0.24377001  0.33219750  0.53512360  1
  C  C9  1  0.93786554  0.12819241  0.43612853  1
  C  C10  1  0.75447826  0.67663436  0.46454378  1
  C  C11  1  0.46301049  0.47450224  0.36105876  1
  C  C12  1  0.16410944  0.27918408  0.26223542  1
  C  C13  1  0.86373517  0.07844158  0.15740869  1
  C  C14  1  0.67705923  0.62106137  0.18952458  1
  C  C15  1  0.38460587  0.42778174  0.09223759  1
  C  C16  1  0.08508414  0.22691933  0.99153494  1
  C  C17  1  0.61284184  0.58401472  0.90941507  1
  C  C18  1  0.31290769  0.38184580  0.81236308  1
  C  C19  1  0.37122867  0.07738370  0.65918046  1
  C  C20  1  0.06081518  0.87374608  0.55872640  1
  C  C21  1  0.57840003  0.22670761  0.48792057  1
  C  C22  1  0.29273968  0.02232290  0.38922148  1
  C  C23  1  0.99712382  0.82475666  0.29137589  1
  C  C24  1  0.80917412  0.37582568  0.31460204  1
  C  C25  1  0.50816755  0.18072467  0.20893152  1
  C  C26  1  0.20849033  0.97438733  0.10959688  1
  C  C27  1  0.91502528  0.77649543  0.01028268  1
  C  C28  1  0.74027104  0.32144067  0.04180082  1
  C  C29  1  0.44199561  0.12553228  0.94387718  1
  C  C30  1  0.13132931  0.92284549  0.83660187  1
  C  C31  1  0.82961705  0.72480843  0.73677451  1
  C  C32  1  0.66554539  0.28170702  0.76374776  1
  C  C33  1  0.70979737  0.96631919  0.60935475  1
  C  C34  1  0.41830186  0.77340282  0.50985134  1
  C  C35  1  0.63549627  0.91791968  0.34400086  1
  C  C36  1  0.33509001  0.72092621  0.23811218  1
  C  C37  1  0.56635390  0.87124964  0.05687493  1
  C  C38  1  0.78902097  0.02488245  0.89025440  1
  C  C39  1  0.49479149  0.81962990  0.78703619  1
  Hf  Hf40  1  0.82364689  0.55134094  0.02614289  1
  Hf  Hf41  1  0.57893594  0.05040717  0.77755928  1
  Hf  Hf42  1  0.09816569  0.39960963  0.69983636  1
  Hf  Hf43  1  0.07789004  0.05076434  0.27422563  1
  Hf  Hf44  1  0.28125239  0.84833365  0.67392439  1
  Hf  Hf45  1  0.97161347  0.65045355  0.57222068  1
  Hf  Hf46  1  0.35053835  0.89694596  0.94985403  1
  Hf  Hf47  1  0.04941669  0.69505280  0.84804672  1
  Ta  Ta48  1  0.45133302  0.30507567  0.65082754  1
  Ta  Ta49  1  0.02607362  0.35186548  0.42514526  1
  Ta  Ta50  1  0.25393596  0.50275691  0.25096456  1
  Ta  Ta51  1  0.94987955  0.30006934  0.15019058  1
  Ta  Ta52  1  0.17850009  0.44992044  0.97695911  1
  Ta  Ta53  1  0.92077308  0.94563935  0.72102431  1
  Ta  Ta54  1  0.37602882  0.25174692  0.37150552  1
  Ta  Ta55  1  0.99885572  -0.00004342  0.99918960  1
  Ti  Ti56  1  0.59708095  0.39869361  0.19673618  1
  Ti  Ti57  1  0.64866886  0.10211240  0.05087518  1
  Ti  Ti58  1  0.62523505  0.74636709  0.62533197  1
  Ti  Ti59  1  0.84517240  0.89543901  0.45116330  1
  Ti  Ti60  1  0.47314635  0.64958554  0.07738075  1
  Ti  Ti61  1  0.29821363  0.20186538  0.09966543  1
  Ti  Ti62  1  0.40393732  0.60166321  0.80100205  1
  Ti  Ti63  1  0.12705059  0.74752894  0.12299922  1
  W  W64  1  0.73863264  0.50568558  0.74148939  1
  W  W65  1  0.66993734  0.45601781  0.47415891  1
  W  W66  1  0.50486616  0.98769749  0.50040383  1
  W  W67  1  0.34016061  0.55307512  0.53124141  1
  W  W68  1  0.87430162  0.24557511  0.87923753  1
  W  W69  1  0.55106063  0.69514600  0.35248504  1
  W  W70  1  0.69773080  0.80184484  0.90061512  1
  W  W71  1  0.19295043  0.80194020  0.39536513  1
  Zr  Zr72  1  0.52874480  0.35535470  0.92764081  1
  Zr  Zr73  1  0.79491618  0.20032407  0.59920790  1
  Zr  Zr74  1  0.72102870  0.14996088  0.32441680  1
  Zr  Zr75  1  0.42456784  0.94588770  0.22211583  1
  Zr  Zr76  1  0.15104967  0.10084068  0.55028340  1
  Zr  Zr77  1  0.77658303  0.85001182  0.17709366  1
  Zr  Zr78  1  0.22592204  0.15132000  0.82783665  1
  Zr  Zr79  1  0.89750662  0.59987308  0.30071850  1
