# generated using pymatgen
data_Ti2AlN
_symmetry_space_group_name_H-M   'P 1'
_cell_length_a   2.99485139
_cell_length_b   2.99485140
_cell_length_c   13.64729217
_cell_angle_alpha   90.00000000
_cell_angle_beta   90.00000000
_cell_angle_gamma   120.00000003
_symmetry_Int_Tables_number   1
_chemical_formula_structural   Ti2AlN
_chemical_formula_sum   'Ti4 Al2 N2'
_cell_volume   106.00532345
_cell_formula_units_Z   2
loop_
 _symmetry_equiv_pos_site_id
 _symmetry_equiv_pos_as_xyz
  1  'x, y, z'
loop_
 _atom_site_type_symbol
 _atom_site_label
 _atom_site_symmetry_multiplicity
 _atom_site_fract_x
 _atom_site_fract_y
 _atom_site_fract_z
 _atom_site_occupancy
  N  N0  1  0.00000000  0.00000000  0.00000000  1
  N  N1  1  0.00000000  0.00000000  0.50000000  1
  Al  Al2  1  0.33333333  0.66666667  0.25000000  1
  Al  Al3  1  0.66666667  0.33333333  0.75000000  1
  Ti  Ti4  1  0.33333333  0.66666667  0.58540962  1
  Ti  Ti5  1  0.66666667  0.33333333  0.08540962  1
  Ti  Ti6  1  0.66666667  0.33333333  0.41459038  1
  Ti  Ti7  1  0.33333333  0.66666667  0.91459038  1
