# generated using pymatgen
data_AlV2N
_symmetry_space_group_name_H-M   'P 1'
_cell_length_a   2.86942226
_cell_length_b   2.86942226
_cell_length_c   13.13804846
_cell_angle_alpha   90.00000000
_cell_angle_beta   90.00000000
_cell_angle_gamma   120.00000001
_symmetry_Int_Tables_number   1
_chemical_formula_structural   AlV2N
_chemical_formula_sum   'Al2 V4 N2'
_cell_volume   93.68076253
_cell_formula_units_Z   2
loop_
 _symmetry_equiv_pos_site_id
 _symmetry_equiv_pos_as_xyz
  1  'x, y, z'
loop_
 _atom_site_type_symbol
 _atom_site_label
 _atom_site_symmetry_multiplicity
 _atom_site_fract_x
 _atom_site_fract_y
 _atom_site_fract_z
 _atom_site_occupancy
  N  N0  1  -0.00000000  0.00000000  0.00000000  1
  N  N1  1  -0.00000000  0.00000000  0.50000000  1
  Al  Al2  1  0.33333333  0.66666667  0.25000000  1
  Al  Al3  1  0.66666667  0.33333333  0.75000000  1
  V  V4  1  0.33333333  0.66666667  0.58580487  1
  V  V5  1  0.66666667  0.33333333  0.08580487  1
  V  V6  1  0.66666667  0.33333333  0.41419513  1
  V  V7  1  0.33333333  0.66666667  0.91419513  1
