# generated using pymatgen
data_Ta2AlN
_symmetry_space_group_name_H-M   'P 1'
_cell_length_a   2.98040944
_cell_length_b   2.98040944
_cell_length_c   14.49972745
_cell_angle_alpha   90.00000000
_cell_angle_beta   90.00000000
_cell_angle_gamma   119.99999999
_symmetry_Int_Tables_number   1
_chemical_formula_structural   Ta2AlN
_chemical_formula_sum   'Ta4 Al2 N2'
_cell_volume   111.54300271
_cell_formula_units_Z   2
loop_
 _symmetry_equiv_pos_site_id
 _symmetry_equiv_pos_as_xyz
  1  'x, y, z'
loop_
 _atom_site_type_symbol
 _atom_site_label
 _atom_site_symmetry_multiplicity
 _atom_site_fract_x
 _atom_site_fract_y
 _atom_site_fract_z
 _atom_site_occupancy
  N  N0  1  0.00000000  0.00000000  0.00000000  1
  N  N1  1  0.00000000  0.00000000  0.50000000  1
  Al  Al2  1  0.33333333  0.66666667  0.25000000  1
  Al  Al3  1  0.66666667  0.33333333  0.75000000  1
  Ta  Ta4  1  0.33333333  0.66666667  0.59511760  1
  Ta  Ta5  1  0.66666667  0.33333333  0.09511760  1
  Ta  Ta6  1  0.66666667  0.33333333  0.40488240  1
  Ta  Ta7  1  0.33333333  0.66666667  0.90488240  1
