# generated using pymatgen
data_Zr7TiC8
_symmetry_space_group_name_H-M   'P 1'
_cell_length_a   7.38775798
_cell_length_b   7.38480559
_cell_length_c   8.73641333
_cell_angle_alpha   75.28663716
_cell_angle_beta   64.99104045
_cell_angle_gamma   72.52056759
_symmetry_Int_Tables_number   1
_chemical_formula_structural   Zr7TiC8
_chemical_formula_sum   'Zr14 Ti2 C16'
_cell_volume   407.52911260
_cell_formula_units_Z   2
loop_
 _symmetry_equiv_pos_site_id
 _symmetry_equiv_pos_as_xyz
  1  'x, y, z'
loop_
 _atom_site_type_symbol
 _atom_site_label
 _atom_site_symmetry_multiplicity
 _atom_site_fract_x
 _atom_site_fract_y
 _atom_site_fract_z
 _atom_site_occupancy
  C  C0  1  0.84468429  0.39993923  0.46660498  1
  C  C1  1  0.15641477  0.59364103  0.53065183  1
  C  C2  1  0.28108523  0.46885897  0.15684817  1
  C  C3  1  0.47172968  0.78445683  0.58608966  1
  C  C4  1  0.78355831  0.97189535  0.64912907  1
  C  C5  1  0.09407463  0.15577038  0.71830205  1
  C  C6  1  0.59281571  0.66256077  0.22089502  1
  C  C7  1  0.89720020  0.85240169  0.28447099  1
  C  C8  1  0.21875000  0.03125000  0.34375000  1
  C  C9  1  0.40679991  0.34335210  0.78068432  1
  C  C10  1  0.71875000  0.53125000  0.84375000  1
  C  C11  1  0.03070009  0.71914790  0.90681568  1
  C  C12  1  0.34342537  0.90672962  0.96919795  1
  C  C13  1  0.54029980  0.21009831  0.40302901  1
  C  C14  1  0.65394169  0.09060465  0.03837093  1
  C  C15  1  0.96577032  0.27804317  0.10141034  1
  Ti  Ti16  1  0.56453457  0.93800895  0.31283926  1
  Ti  Ti17  1  0.87296543  0.12449105  0.37466074  1
  Zr  Zr18  1  0.06229543  0.43700758  0.81325460  1
  Zr  Zr19  1  0.37520457  0.62549242  0.87424540  1
  Zr  Zr20  1  0.50218972  0.49939270  0.49795552  1
  Zr  Zr21  1  0.68708441  0.81349206  0.93865907  1
  Zr  Zr22  1  0.99717822  0.00044627  0.00346924  1
  Zr  Zr23  1  0.31143140  0.18601774  0.06556271  1
  Zr  Zr24  1  0.81207018  0.68971055  0.56004447  1
  Zr  Zr25  1  0.12606860  0.87648226  0.62193729  1
  Zr  Zr26  1  0.44032178  0.06205373  0.68403076  1
  Zr  Zr27  1  0.62542982  0.37278945  0.12745553  1
  Zr  Zr28  1  0.93531028  0.56310730  0.18954448  1
  Zr  Zr29  1  0.24860432  0.75274188  0.25127486  1
  Zr  Zr30  1  0.75041559  0.24900794  0.74884093  1
  Zr  Zr31  1  0.18889568  0.30975812  0.43622514  1
