# generated using pymatgen
data_Hf3TiC4
_symmetry_space_group_name_H-M   'P 1'
_cell_length_a   6.48051238
_cell_length_b   7.23972838
_cell_length_c   8.56293944
_cell_angle_alpha   85.15273441
_cell_angle_beta   79.12893875
_cell_angle_gamma   77.06816292
_symmetry_Int_Tables_number   1
_chemical_formula_structural   Hf3TiC4
_chemical_formula_sum   'Hf12 Ti4 C16'
_cell_volume   384.15669858
_cell_formula_units_Z   4
loop_
 _symmetry_equiv_pos_site_id
 _symmetry_equiv_pos_as_xyz
  1  'x, y, z'
loop_
 _atom_site_type_symbol
 _atom_site_label
 _atom_site_symmetry_multiplicity
 _atom_site_fract_x
 _atom_site_fract_y
 _atom_site_fract_z
 _atom_site_occupancy
  C  C0  1  0.83872607  0.18732987  0.44086019  1
  C  C1  1  0.34736140  0.18682870  0.44059055  1
  C  C2  1  0.72393594  0.93883412  0.18257160  1
  C  C3  1  0.21505298  0.93939991  0.18285801  1
  C  C4  1  0.03104569  0.56143091  0.31303840  1
  C  C5  1  0.53168890  0.56169456  0.31281372  1
  C  C6  1  0.90975086  0.30780026  0.05413200  1
  C  C7  1  0.40726637  0.31366616  0.05531801  1
  C  C8  1  0.77930259  0.06916250  0.81382404  1
  C  C9  1  0.27928709  0.06876844  0.81377260  1
  C  C10  1  0.65412202  0.81776029  0.56449935  1
  C  C11  1  0.15632617  0.81302821  0.56350036  1
  C  C12  1  0.09410260  0.68710546  0.93683368  1
  C  C13  1  0.59527658  0.68282084  0.93601652  1
  C  C14  1  0.96753418  0.43523110  0.69528988  1
  C  C15  1  0.46906137  0.42926245  0.69421205  1
  Hf  Hf16  1  0.43823480  0.87625894  0.37481884  1
  Hf  Hf17  1  0.93625710  0.87638183  0.37473530  1
  Hf  Hf18  1  0.31233805  0.62419755  0.12227767  1
  Hf  Hf19  1  0.81476875  0.62317054  0.12179279  1
  Hf  Hf20  1  0.62654643  0.24955114  0.24736493  1
  Hf  Hf21  1  0.12483375  0.24946197  0.24734415  1
  Hf  Hf22  1  0.50002890  0.00291984  0.99673723  1
  Hf  Hf23  1  0.37433351  0.74986384  0.75197608  1
  Hf  Hf24  1  0.87458749  0.75086943  0.75194148  1
  Hf  Hf25  1  0.25076986  0.49739580  0.50351796  1
  Hf  Hf26  1  0.74855975  0.49833875  0.50392523  1
  Hf  Hf27  1  0.06108666  0.12677586  0.62880714  1
  Ti  Ti28  1  0.99944873  0.00378749  0.99845863  1
  Ti  Ti29  1  0.68842337  0.37163726  0.87438640  1
  Ti  Ti30  1  0.18873939  0.37178046  0.87418077  1
  Ti  Ti31  1  0.56120264  0.12748555  0.62760442  1
