# generated using pymatgen
data_HfTiC2
_symmetry_space_group_name_H-M   'P 1'
_cell_length_a   11.02278406
_cell_length_b   11.02079645
_cell_length_c   5.51429447
_cell_angle_alpha   99.60291198
_cell_angle_beta   99.61111715
_cell_angle_gamma   33.62832155
_symmetry_Int_Tables_number   1
_chemical_formula_structural   HfTiC2
_chemical_formula_sum   'Hf8 Ti8 C16'
_cell_volume   365.29775147
_cell_formula_units_Z   8
loop_
 _symmetry_equiv_pos_site_id
 _symmetry_equiv_pos_as_xyz
  1  'x, y, z'
loop_
 _atom_site_type_symbol
 _atom_site_label
 _atom_site_symmetry_multiplicity
 _atom_site_fract_x
 _atom_site_fract_y
 _atom_site_fract_z
 _atom_site_occupancy
  C  C0  1  0.18331153  0.19411247  0.12205033  1
  C  C1  1  0.68778713  0.18744344  0.12493397  1
  C  C2  1  0.30412702  0.31350784  0.86866871  1
  C  C3  1  0.42811577  0.44662437  0.62509618  1
  C  C4  1  0.81725095  0.31760346  0.87896731  1
  C  C5  1  0.18738661  0.68758588  0.12410557  1
  C  C6  1  0.56478553  0.56532901  0.38285651  1
  C  C7  1  0.94219388  0.43068573  0.62791679  1
  C  C8  1  0.69261936  0.68210512  0.11529400  1
  C  C9  1  0.06474547  0.55496419  0.37767122  1
  C  C10  1  0.31526505  0.81472153  0.86437994  1
  C  C11  1  0.43228083  0.94265086  0.63459547  1
  C  C12  1  0.81481331  0.80531404  0.87565767  1
  C  C13  1  0.55427971  0.06306736  0.36978810  1
  C  C14  1  0.94662496  0.92840781  0.62571979  1
  C  C15  1  0.06483728  0.06551536  0.38276732  1
  Hf  Hf16  1  0.75071917  0.74550797  0.50059355  1
  Hf  Hf17  1  0.87641443  0.87042927  0.24919223  1
  Hf  Hf18  1  0.00352656  0.00004145  0.00042281  1
  Hf  Hf19  1  0.37525249  0.87807922  0.25064655  1
  Hf  Hf20  1  0.75176582  0.25202165  0.50339986  1
  Hf  Hf21  1  0.62216677  0.12424076  0.74832106  1
  Hf  Hf22  1  0.37060750  0.37568405  0.24789904  1
  Hf  Hf23  1  0.49983560  0.50352651  0.00056761  1
  Ti  Ti24  1  0.25122169  0.75113850  0.50244476  1
  Ti  Ti25  1  0.12590607  0.12796513  0.75062610  1
  Ti  Ti26  1  0.49555141  0.00097975  0.99716040  1
  Ti  Ti27  1  0.24615700  0.25118677  0.50112774  1
  Ti  Ti28  1  0.87837627  0.37536682  0.25016996  1
  Ti  Ti29  1  0.00028793  0.49609644  0.99664388  1
  Ti  Ti30  1  0.12444746  0.62297497  0.74923326  1
  Ti  Ti31  1  0.62733941  0.62512229  0.75108229  1
