# generated using pymatgen
data_Hf7TiC8
_symmetry_space_group_name_H-M   'P 1'
_cell_length_a   5.65225302
_cell_length_b   8.63383988
_cell_length_c   8.63007347
_cell_angle_alpha   81.75107871
_cell_angle_beta   83.71604757
_cell_angle_gamma   70.87114659
_symmetry_Int_Tables_number   1
_chemical_formula_structural   Hf7TiC8
_chemical_formula_sum   'Hf14 Ti2 C16'
_cell_volume   392.90311465
_cell_formula_units_Z   2
loop_
 _symmetry_equiv_pos_site_id
 _symmetry_equiv_pos_as_xyz
  1  'x, y, z'
loop_
 _atom_site_type_symbol
 _atom_site_label
 _atom_site_symmetry_multiplicity
 _atom_site_fract_x
 _atom_site_fract_y
 _atom_site_fract_z
 _atom_site_occupancy
  C  C0  1  0.75000000  0.71875000  0.34375000  1
  C  C1  1  0.75047190  0.34324562  0.46930572  1
  C  C2  1  0.25015057  0.03138990  0.40666632  1
  C  C3  1  0.74591381  0.97046611  0.59813845  1
  C  C4  1  0.25035809  0.65582912  0.53193579  1
  C  C5  1  0.75424938  0.59011937  0.72169538  1
  C  C6  1  0.24992606  0.27892405  0.66346344  1
  C  C7  1  0.75000000  0.21875000  0.84375000  1
  C  C8  1  0.25363366  0.90914829  0.78204001  1
  C  C9  1  0.74575062  0.84738063  0.96580462  1
  C  C10  1  0.24636634  0.52835171  0.90545999  1
  C  C11  1  0.75408619  0.46703389  0.08936155  1
  C  C12  1  0.25007394  0.15857595  0.02403656  1
  C  C13  1  0.74952810  0.09425438  0.21819428  1
  C  C14  1  0.24964191  0.78167088  0.15556421  1
  C  C15  1  0.24984943  0.40611010  0.28083368  1
  Hf  Hf16  1  0.99939216  0.87540410  0.37552169  1
  Hf  Hf17  1  0.00061532  0.49883287  0.50230739  1
  Hf  Hf18  1  0.49927390  0.18724074  0.43976647  1
  Hf  Hf19  1  0.99967929  0.12555330  0.62782890  1
  Hf  Hf20  1  0.50056410  0.81288183  0.56408379  1
  Hf  Hf21  1  0.99864368  0.75023339  0.75094155  1
  Hf  Hf22  1  0.50040365  0.43542115  0.68978692  1
  Hf  Hf23  1  0.99959635  0.00207885  0.99771308  1
  Hf  Hf24  1  0.50135632  0.68726661  0.93655845  1
  Hf  Hf25  1  0.99943590  0.62461817  0.12341621  1
  Hf  Hf26  1  0.50032071  0.31194670  0.05967110  1
  Hf  Hf27  1  0.00072610  0.25025926  0.24773353  1
  Hf  Hf28  1  0.49938468  0.93866713  0.18519261  1
  Hf  Hf29  1  0.50060784  0.56209590  0.31197831  1
  Ti  Ti30  1  0.00265771  0.37345978  0.87472551  1
  Ti  Ti31  1  0.49734229  0.06404022  0.81277449  1
