# generated using pymatgen
data_ZrTi3C4
_symmetry_space_group_name_H-M   'P 1'
_cell_length_a   6.28344223
_cell_length_b   7.02260183
_cell_length_c   8.29784361
_cell_angle_alpha   85.24102489
_cell_angle_beta   79.13352305
_cell_angle_gamma   77.11051330
_symmetry_Int_Tables_number   1
_chemical_formula_structural   ZrTi3C4
_chemical_formula_sum   'Zr4 Ti12 C16'
_cell_volume   350.20516754
_cell_formula_units_Z   4
loop_
 _symmetry_equiv_pos_site_id
 _symmetry_equiv_pos_as_xyz
  1  'x, y, z'
loop_
 _atom_site_type_symbol
 _atom_site_label
 _atom_site_symmetry_multiplicity
 _atom_site_fract_x
 _atom_site_fract_y
 _atom_site_fract_z
 _atom_site_occupancy
  C  C0  1  0.84263798  0.18796890  0.43812879  1
  C  C1  1  0.34434160  0.18784724  0.43813892  1
  C  C2  1  0.72187056  0.94497641  0.19412817  1
  C  C3  1  0.20797987  0.94610631  0.19477854  1
  C  C4  1  0.02858055  0.55782222  0.32505536  1
  C  C5  1  0.53019108  0.55774509  0.32457007  1
  C  C6  1  0.90906999  0.30408633  0.06120157  1
  C  C7  1  0.40554449  0.31233346  0.06338466  1
  C  C8  1  0.78622070  0.07201964  0.80724982  1
  C  C9  1  0.27602207  0.06548673  0.80597849  1
  C  C10  1  0.64963980  0.81587000  0.55672930  1
  C  C11  1  0.16469050  0.81504805  0.55645192  1
  C  C12  1  0.10114735  0.68805565  0.93156963  1
  C  C13  1  0.59126672  0.68087872  0.93031932  1
  C  C14  1  0.97213726  0.42809037  0.68544377  1
  C  C15  1  0.46891676  0.43529751  0.68699574  1
  Ti  Ti16  1  0.43591092  0.87918050  0.37878007  1
  Ti  Ti17  1  0.93511276  0.88046283  0.37704566  1
  Ti  Ti18  1  0.62584190  0.24827385  0.25339797  1
  Ti  Ti19  1  0.12310711  0.24872606  0.25392807  1
  Ti  Ti20  1  0.99980163  0.00477446  0.99888858  1
  Ti  Ti21  1  0.37523579  0.74954877  0.74468741  1
  Ti  Ti22  1  0.25243321  0.49548890  0.50252882  1
  Ti  Ti23  1  0.74884673  0.49554236  0.50244244  1
  Ti  Ti24  1  0.68899329  0.37233107  0.87183885  1
  Ti  Ti25  1  0.18906768  0.37206917  0.87181796  1
  Ti  Ti26  1  0.56080490  0.12794178  0.62200048  1
  Ti  Ti27  1  0.06428745  0.12656798  0.62247587  1
  Zr  Zr28  1  0.31030631  0.62437541  0.12962297  1
  Zr  Zr29  1  0.81374650  0.62217683  0.12799200  1
  Zr  Zr30  1  0.49820844  0.00310961  0.99897563  1
  Zr  Zr31  1  0.87803810  0.74979780  0.74345317  1
