# generated using pymatgen
data_MnAl26N27
_symmetry_space_group_name_H-M   'P 1'
_cell_length_a   8.63106585
_cell_length_b   8.63106585
_cell_length_c   8.63106584
_cell_angle_alpha   59.99999998
_cell_angle_beta   60.00000001
_cell_angle_gamma   60.00000004
_symmetry_Int_Tables_number   1
_chemical_formula_structural   MnAl26N27
_chemical_formula_sum   'Mn1 Al26 N27'
_cell_volume   454.65114799
_cell_formula_units_Z   1
loop_
 _symmetry_equiv_pos_site_id
 _symmetry_equiv_pos_as_xyz
  1  'x, y, z'
loop_
 _atom_site_type_symbol
 _atom_site_label
 _atom_site_symmetry_multiplicity
 _atom_site_fract_x
 _atom_site_fract_y
 _atom_site_fract_z
 _atom_site_occupancy
  Al  Al0  1  -0.00051520  -0.00051520  0.00051520  1
  Al  Al1  1  -0.00002377  -0.00002377  0.33330956  1
  Al  Al2  1  -0.00002377  -0.00002377  0.66673797  1
  Al  Al3  1  0.00068774  0.33333333  -0.00068774  1
  Al  Al4  1  -0.00002377  0.33340463  0.33330956  1
  Al  Al5  1  0.00068774  0.33333333  0.66666667  1
  Al  Al6  1  -0.00051520  0.66718187  0.00051520  1
  Al  Al7  1  -0.00051520  0.66718187  0.33281813  1
  Al  Al8  1  0.00068774  0.66597893  0.66666667  1
  Al  Al9  1  0.33333333  0.00068774  -0.00068774  1
  Al  Al10  1  0.33340463  -0.00002377  0.33330956  1
  Al  Al11  1  0.33333333  0.00068774  0.66666667  1
  Al  Al12  1  0.33333333  0.33333333  -0.00068774  1
  Al  Al13  1  0.33333333  0.33333333  0.33402107  1
  Al  Al14  1  0.33326203  0.66669044  0.00002377  1
  Al  Al15  1  0.33333333  0.66597893  0.33402107  1
  Al  Al16  1  0.33333333  0.66597893  0.66666667  1
  Al  Al17  1  0.66718187  -0.00051520  0.00051520  1
  Al  Al18  1  0.66718187  -0.00051520  0.33281813  1
  Al  Al19  1  0.66597893  0.00068774  0.66666667  1
  Al  Al20  1  0.66669044  0.33326203  0.00002377  1
  Al  Al21  1  0.66597893  0.33333333  0.33402107  1
  Al  Al22  1  0.66597893  0.33333333  0.66666667  1
  Al  Al23  1  0.66669044  0.66669044  0.00002377  1
  Al  Al24  1  0.66718187  0.66718187  0.33281813  1
  Al  Al25  1  0.66669044  0.66669044  0.66659537  1
  N  N26  1  0.16673903  0.16673903  0.16644960  1
  N  N27  1  0.16673903  0.16673903  0.50007236  1
  N  N28  1  0.16530749  0.16530749  0.83469251  1
  N  N29  1  0.16653127  0.50013540  0.16666667  1
  N  N30  1  0.16530749  0.50135918  0.49864082  1
  N  N31  1  0.16530749  0.50135918  0.83469251  1
  N  N32  1  0.16653127  0.83333333  0.16666667  1
  N  N33  1  0.16673903  0.83311626  0.50007236  1
  N  N34  1  0.16653127  0.83333333  0.83346873  1
  N  N35  1  0.50013540  0.16653127  0.16666667  1
  N  N36  1  0.50135918  0.16530749  0.49864082  1
  N  N37  1  0.50135918  0.16530749  0.83469251  1
  N  N38  1  0.49992764  0.49992764  0.16688374  1
  N  N39  1  0.50135918  0.50135918  0.49864082  1
  N  N40  1  0.49992764  0.49992764  0.83326097  1
  N  N41  1  0.50013540  0.83333333  0.16666667  1
  N  N42  1  0.50013540  0.83333333  0.49986460  1
  N  N43  1  0.49992764  0.83355040  0.83326097  1
  N  N44  1  0.83333333  0.16653127  0.16666667  1
  N  N45  1  0.83311626  0.16673903  0.50007236  1
  N  N46  1  0.83333333  0.16653127  0.83346873  1
  N  N47  1  0.83333333  0.50013540  0.16666667  1
  N  N48  1  0.83333333  0.50013540  0.49986460  1
  N  N49  1  0.83355040  0.49992764  0.83326097  1
  N  N50  1  0.83333333  0.83333333  0.16666667  1
  N  N51  1  0.83333333  0.83333333  0.49986460  1
  N  N52  1  0.83333333  0.83333333  0.83346873  1
  Mn  Mn53  1  0.33333333  0.33333333  0.66666667  1
