# generated using pymatgen
data_Ti31CrN32
_symmetry_space_group_name_H-M   'P 1'
_cell_length_a   8.44579340
_cell_length_b   8.44579340
_cell_length_c   8.44579340
_cell_angle_alpha   90.00000000
_cell_angle_beta   90.00000000
_cell_angle_gamma   90.00000000
_symmetry_Int_Tables_number   1
_chemical_formula_structural   Ti31CrN32
_chemical_formula_sum   'Ti31 Cr1 N32'
_cell_volume   602.45048824
_cell_formula_units_Z   1
loop_
 _symmetry_equiv_pos_site_id
 _symmetry_equiv_pos_as_xyz
  1  'x, y, z'
loop_
 _atom_site_type_symbol
 _atom_site_label
 _atom_site_symmetry_multiplicity
 _atom_site_fract_x
 _atom_site_fract_y
 _atom_site_fract_z
 _atom_site_occupancy
  Ti  Ti0  1  -0.00000000  0.00000000  -0.00000000  1
  Ti  Ti1  1  -0.00000000  0.25035858  0.25035858  1
  Ti  Ti2  1  0.25035858  -0.00000000  0.25035858  1
  Ti  Ti3  1  0.25035858  0.25035858  -0.00000000  1
  Ti  Ti4  1  -0.00000000  0.00000000  0.50000000  1
  Ti  Ti5  1  -0.00000000  0.25035858  0.74964142  1
  Ti  Ti6  1  0.25035858  -0.00000000  0.74964142  1
  Ti  Ti7  1  0.25151625  0.25151625  0.50000000  1
  Ti  Ti8  1  -0.00000000  0.50000000  -0.00000000  1
  Ti  Ti9  1  -0.00000000  0.74964142  0.25035858  1
  Ti  Ti10  1  0.25151625  0.50000000  0.25151625  1
  Ti  Ti11  1  0.25035858  0.74964142  -0.00000000  1
  Ti  Ti12  1  -0.00000000  0.50000000  0.50000000  1
  Ti  Ti13  1  -0.00000000  0.74964142  0.74964142  1
  Ti  Ti14  1  0.25151625  0.50000000  0.74848375  1
  Ti  Ti15  1  0.25151625  0.74848375  0.50000000  1
  Ti  Ti16  1  0.50000000  0.00000000  -0.00000000  1
  Ti  Ti17  1  0.50000000  0.25151625  0.25151625  1
  Ti  Ti18  1  0.74964142  0.00000000  0.25035858  1
  Ti  Ti19  1  0.74964142  0.25035858  -0.00000000  1
  Ti  Ti20  1  0.50000000  0.00000000  0.50000000  1
  Ti  Ti21  1  0.50000000  0.25151625  0.74848375  1
  Ti  Ti22  1  0.74964142  0.00000000  0.74964142  1
  Ti  Ti23  1  0.74848375  0.25151625  0.50000000  1
  Ti  Ti24  1  0.50000000  0.50000000  -0.00000000  1
  Ti  Ti25  1  0.50000000  0.74848375  0.25151625  1
  Ti  Ti26  1  0.74848375  0.50000000  0.25151625  1
  Ti  Ti27  1  0.74964142  0.74964142  -0.00000000  1
  Ti  Ti28  1  0.50000000  0.74848375  0.74848375  1
  Ti  Ti29  1  0.74848375  0.50000000  0.74848375  1
  Ti  Ti30  1  0.74848375  0.74848375  0.50000000  1
  N  N31  1  0.25019008  0.25019008  0.25019008  1
  N  N32  1  0.25036964  0.00000000  -0.00000000  1
  N  N33  1  -0.00000000  0.25036964  -0.00000000  1
  N  N34  1  -0.00000000  0.00000000  0.25036964  1
  N  N35  1  0.25019008  0.25019008  0.74980992  1
  N  N36  1  0.25059009  0.00000000  0.50000000  1
  N  N37  1  -0.00000000  0.25059009  0.50000000  1
  N  N38  1  -0.00000000  -0.00000000  0.74963036  1
  N  N39  1  0.25019008  0.74980992  0.25019008  1
  N  N40  1  0.25059009  0.50000000  -0.00000000  1
  N  N41  1  -0.00000000  0.74963036  -0.00000000  1
  N  N42  1  -0.00000000  0.50000000  0.25059009  1
  N  N43  1  0.25019008  0.74980992  0.74980992  1
  N  N44  1  0.25078227  0.50000000  0.50000000  1
  N  N45  1  -0.00000000  0.74940991  0.50000000  1
  N  N46  1  -0.00000000  0.50000000  0.74940991  1
  N  N47  1  0.74980992  0.25019008  0.25019008  1
  N  N48  1  0.74963036  -0.00000000  -0.00000000  1
  N  N49  1  0.50000000  0.25059009  -0.00000000  1
  N  N50  1  0.50000000  0.00000000  0.25059009  1
  N  N51  1  0.74980992  0.25019008  0.74980992  1
  N  N52  1  0.74940991  -0.00000000  0.50000000  1
  N  N53  1  0.50000000  0.25078227  0.50000000  1
  N  N54  1  0.50000000  -0.00000000  0.74940991  1
  N  N55  1  0.74980992  0.74980992  0.25019008  1
  N  N56  1  0.74940991  0.50000000  -0.00000000  1
  N  N57  1  0.50000000  0.74940991  -0.00000000  1
  N  N58  1  0.50000000  0.50000000  0.25078227  1
  N  N59  1  0.74980992  0.74980992  0.74980992  1
  N  N60  1  0.74921773  0.50000000  0.50000000  1
  N  N61  1  0.50000000  0.74921773  0.50000000  1
  N  N62  1  0.50000000  0.50000000  0.74921773  1
  Cr  Cr63  1  0.50000000  0.50000000  0.50000000  1
