# generated using pymatgen
data_TiOsN2
_symmetry_space_group_name_H-M   'P 1'
_cell_length_a   7.06757923
_cell_length_b   7.60500934
_cell_length_c   3.14357269
_cell_angle_alpha   90.00000000
_cell_angle_beta   90.00000000
_cell_angle_gamma   108.91986615
_symmetry_Int_Tables_number   1
_chemical_formula_structural   TiOsN2
_chemical_formula_sum   'Ti4 Os4 N8'
_cell_volume   159.83529295
_cell_formula_units_Z   4
loop_
 _symmetry_equiv_pos_site_id
 _symmetry_equiv_pos_as_xyz
  1  'x, y, z'
loop_
 _atom_site_type_symbol
 _atom_site_label
 _atom_site_symmetry_multiplicity
 _atom_site_fract_x
 _atom_site_fract_y
 _atom_site_fract_z
 _atom_site_occupancy
  Ti  Ti0  1  0.08839205  0.87652280  0.50000000  1
  Ti  Ti1  1  0.02057112  0.50899158  0.00000000  1
  Ti  Ti2  1  0.27046173  0.24867992  0.00000000  1
  Ti  Ti3  1  0.51965565  0.99933493  0.00000000  1
  N  N4  1  0.13480550  0.36625458  0.50000000  1
  N  N5  1  0.99137498  0.01618748  0.00000000  1
  N  N6  1  0.36998321  0.09936097  0.50000000  1
  N  N7  1  0.25696089  0.76970883  0.00000000  1
  N  N8  1  0.64482729  0.85768749  0.50000000  1
  N  N9  1  0.52386575  0.50761143  0.00000000  1
  N  N10  1  0.86398035  0.60291444  0.50000000  1
  N  N11  1  0.76716852  0.27170430  0.00000000  1
  Os  Os12  1  0.84507140  0.13190815  0.50000000  1
  Os  Os13  1  0.77635110  0.74599985  0.00000000  1
  Os  Os14  1  0.33839867  0.63822692  0.50000000  1
  Os  Os15  1  0.58813180  0.35890632  0.50000000  1
