# generated using pymatgen
data_Ti3BN4
_symmetry_space_group_name_H-M   'P 1'
_cell_length_a   6.56415311
_cell_length_b   6.55698191
_cell_length_c   4.25653125
_cell_angle_alpha   90.00000000
_cell_angle_beta   90.00000000
_cell_angle_gamma   120.03618508
_symmetry_Int_Tables_number   1
_chemical_formula_structural   Ti3BN4
_chemical_formula_sum   'Ti6 B2 N8'
_cell_volume   158.60273641
_cell_formula_units_Z   2
loop_
 _symmetry_equiv_pos_site_id
 _symmetry_equiv_pos_as_xyz
  1  'x, y, z'
loop_
 _atom_site_type_symbol
 _atom_site_label
 _atom_site_symmetry_multiplicity
 _atom_site_fract_x
 _atom_site_fract_y
 _atom_site_fract_z
 _atom_site_occupancy
  Ti  Ti0  1  0.16187694  0.32375386  0.43818358  1
  Ti  Ti1  1  0.34393473  0.16374970  0.93987388  1
  Ti  Ti2  1  0.15606527  0.83625030  0.43987388  1
  Ti  Ti3  1  0.33812306  0.67624614  0.93818358  1
  Ti  Ti4  1  0.81981496  0.16374970  0.93987388  1
  Ti  Ti5  1  0.68018504  0.83625030  0.43987388  1
  N  N6  1  0.16513293  0.33026584  0.93884336  1
  N  N7  1  0.39359250  0.19407020  0.43661308  1
  N  N8  1  0.10640750  0.80592980  0.93661308  1
  N  N9  1  0.33486707  0.66973416  0.43884336  1
  N  N10  1  0.69554020  0.39108041  0.87787984  1
  N  N11  1  0.80047769  0.19407020  0.43661308  1
  N  N12  1  0.69952231  0.80592980  0.93661308  1
  N  N13  1  0.80445980  0.60891959  0.37787984  1
  B  B14  1  0.67817800  0.35635599  0.52011928  1
  B  B15  1  0.82182200  0.64364401  0.02011928  1
