# generated using pymatgen
data_AlB3N4
_symmetry_space_group_name_H-M   'P 1'
_cell_length_a   5.44725311
_cell_length_b   5.44725312
_cell_length_c   4.40047725
_cell_angle_alpha   90.00000000
_cell_angle_beta   90.00000000
_cell_angle_gamma   119.96918786
_symmetry_Int_Tables_number   1
_chemical_formula_structural   AlB3N4
_chemical_formula_sum   'Al2 B6 N8'
_cell_volume   113.11502108
_cell_formula_units_Z   2
loop_
 _symmetry_equiv_pos_site_id
 _symmetry_equiv_pos_as_xyz
  1  'x, y, z'
loop_
 _atom_site_type_symbol
 _atom_site_label
 _atom_site_symmetry_multiplicity
 _atom_site_fract_x
 _atom_site_fract_y
 _atom_site_fract_z
 _atom_site_occupancy
  Al  Al0  1  0.16001231  0.33998769  0.50544868  1
  Al  Al1  1  0.33998769  0.16001231  0.00544868  1
  N  N2  1  0.15279101  0.34720899  0.92215236  1
  N  N3  1  0.34720899  0.15279101  0.42215236  1
  N  N4  1  0.15057640  0.79989585  0.86444028  1
  N  N5  1  0.34942360  0.70010415  0.36444028  1
  N  N6  1  0.70010415  0.34942360  0.86444028  1
  N  N7  1  0.79989585  0.15057640  0.36444028  1
  N  N8  1  0.66653513  0.83346487  0.86617371  1
  N  N9  1  0.83346487  0.66653513  0.36617371  1
  B  B10  1  0.17204028  0.83042530  0.50593332  1
  B  B11  1  0.32795972  0.66957470  0.00593332  1
  B  B12  1  0.66957470  0.32795972  0.50593332  1
  B  B13  1  0.83042530  0.17204028  0.00593332  1
  B  B14  1  0.66169198  0.83830802  0.49347805  1
  B  B15  1  0.83830802  0.66169198  0.99347805  1
