# generated using pymatgen
data_AlBN2
_symmetry_space_group_name_H-M   'P 1'
_cell_length_a   5.67701268
_cell_length_b   5.87513150
_cell_length_c   4.58603602
_cell_angle_alpha   89.77164795
_cell_angle_beta   90.00000000
_cell_angle_gamma   118.89062969
_symmetry_Int_Tables_number   1
_chemical_formula_structural   AlBN2
_chemical_formula_sum   'Al4 B4 N8'
_cell_volume   133.92084251
_cell_formula_units_Z   4
loop_
 _symmetry_equiv_pos_site_id
 _symmetry_equiv_pos_as_xyz
  1  'x, y, z'
loop_
 _atom_site_type_symbol
 _atom_site_label
 _atom_site_symmetry_multiplicity
 _atom_site_fract_x
 _atom_site_fract_y
 _atom_site_fract_z
 _atom_site_occupancy
  Al  Al0  1  0.17237678  0.34817479  0.50484041  1
  Al  Al1  1  0.32062217  0.14124435  0.00324882  1
  Al  Al2  1  0.67579801  0.34817479  0.50484041  1
  Al  Al3  1  0.66936247  0.83872494  0.48672144  1
  N  N4  1  0.15075206  0.34767561  0.91355177  1
  N  N5  1  0.31534119  0.13068239  0.41520100  1
  N  N6  1  0.14780469  0.79560938  0.85177833  1
  N  N7  1  0.31805804  0.68554448  0.34678434  1
  N  N8  1  0.69692357  0.34767561  0.91355177  1
  N  N9  1  0.83735178  0.17470358  0.34862936  1
  N  N10  1  0.63323505  0.76647008  0.88604997  1
  N  N11  1  0.86748643  0.68554448  0.34678434  1
  B  B12  1  0.16045877  0.82091752  0.49249153  1
  B  B13  1  0.32808946  0.66156741  0.00204559  1
  B  B14  1  0.87286159  0.24572319  0.03743532  1
  B  B15  1  0.83347794  0.66156741  0.00204559  1
