# generated using pymatgen
data_Ti3BN4
_symmetry_space_group_name_H-M   'P 1'
_cell_length_a   7.84694744
_cell_length_b   7.89668600
_cell_length_c   5.96170264
_cell_angle_alpha   90.95072813
_cell_angle_beta   88.37039494
_cell_angle_gamma   114.76911294
_symmetry_Int_Tables_number   1
_chemical_formula_structural   Ti3BN4
_chemical_formula_sum   'Ti12 B4 N16'
_cell_volume   335.29106201
_cell_formula_units_Z   4
loop_
 _symmetry_equiv_pos_site_id
 _symmetry_equiv_pos_as_xyz
  1  'x, y, z'
loop_
 _atom_site_type_symbol
 _atom_site_label
 _atom_site_symmetry_multiplicity
 _atom_site_fract_x
 _atom_site_fract_y
 _atom_site_fract_z
 _atom_site_occupancy
  Ti  Ti0  1  0.95508301  0.47852943  0.32081147  1
  Ti  Ti1  1  0.22843974  0.23794579  0.33716690  1
  Ti  Ti2  1  0.10151647  0.36211616  0.84277957  1
  Ti  Ti3  1  0.47935833  0.96825438  0.35478479  1
  Ti  Ti4  1  0.35069163  0.08604763  0.82354870  1
  Ti  Ti5  1  0.84223071  0.61048297  0.85530971  1
  Ti  Ti6  1  0.84207104  0.09437158  0.16541481  1
  Ti  Ti7  1  0.72493146  0.23150635  0.67563582  1
  Ti  Ti8  1  0.10575441  0.85765575  0.17288631  1
  Ti  Ti9  1  0.97209151  0.97935906  0.66535438  1
  Ti  Ti10  1  0.21520231  0.71560221  0.64575822  1
  Ti  Ti11  1  0.48475450  0.46000901  0.67570484  1
  N  N12  1  0.24461811  0.70384913  0.28167521  1
  N  N13  1  0.50659335  0.44332901  0.30899089  1
  N  N14  1  0.36573117  0.62713372  0.88315212  1
  N  N15  1  0.69628814  0.23426038  0.30346408  1
  N  N16  1  0.59805058  0.34188199  0.90551571  1
  N  N17  1  0.98452397  0.99364084  0.34013340  1
  N  N18  1  0.85883066  0.11887693  0.84113000  1
  N  N19  1  0.09483337  0.84690884  0.83866009  1
  N  N20  1  0.83566115  0.63953383  0.18937255  1
  N  N21  1  0.07962531  0.33602389  0.17123958  1
  N  N22  1  0.96725825  0.47769431  0.65186578  1
  N  N23  1  0.36001209  0.10378957  0.16371319  1
  N  N24  1  0.22771311  0.23101458  0.67193204  1
  N  N25  1  0.58926941  0.78996444  0.21103029  1
  N  N26  1  0.49904923  0.93836813  0.68750039  1
  N  N27  1  0.69949270  0.73556324  0.71192880  1
  B  B28  1  0.64803622  0.63337612  0.24669185  1
  B  B29  1  0.53957967  0.77932982  0.75783469  1
  B  B30  1  0.55119889  0.29126518  0.17258026  1
  B  B31  1  0.39150949  0.69231573  0.12643355  1
