# generated using pymatgen
data_Ti15CrN16
_symmetry_space_group_name_H-M   'P 1'
_cell_length_a   7.03301288
_cell_length_b   7.03301288
_cell_length_c   8.42033919
_cell_angle_alpha   90.00000000
_cell_angle_beta   90.00000000
_cell_angle_gamma   120.00000000
_symmetry_Int_Tables_number   1
_chemical_formula_structural   Ti15CrN16
_chemical_formula_sum   'Ti15 Cr1 N16'
_cell_volume   360.69742629
_cell_formula_units_Z   1
loop_
 _symmetry_equiv_pos_site_id
 _symmetry_equiv_pos_as_xyz
  1  'x, y, z'
loop_
 _atom_site_type_symbol
 _atom_site_label
 _atom_site_symmetry_multiplicity
 _atom_site_fract_x
 _atom_site_fract_y
 _atom_site_fract_z
 _atom_site_occupancy
  Cr  Cr0  1  0.16666667  0.33333333  0.22058206  1
  Ti  Ti1  1  0.33175887  0.16824113  0.97442727  1
  Ti  Ti2  1  0.16666667  0.33333333  0.72069369  1
  Ti  Ti3  1  0.33166573  0.16833427  0.46634911  1
  Ti  Ti4  1  0.16407655  0.83203827  0.22051953  1
  Ti  Ti5  1  0.33175887  0.66351776  0.97442727  1
  Ti  Ti6  1  0.16777995  0.83388997  0.72058943  1
  Ti  Ti7  1  0.33166573  0.66333146  0.46634911  1
  Ti  Ti8  1  0.66796173  0.33592345  0.22051953  1
  Ti  Ti9  1  0.83648224  0.16824113  0.97442727  1
  Ti  Ti10  1  0.66611003  0.33222005  0.72058943  1
  Ti  Ti11  1  0.83666854  0.16833427  0.46634911  1
  Ti  Ti12  1  0.66796173  0.83203827  0.22051953  1
  Ti  Ti13  1  0.83333333  0.66666667  0.96686304  1
  Ti  Ti14  1  0.66611003  0.83388997  0.72058943  1
  Ti  Ti15  1  0.83333333  0.66666667  0.47370584  1
  N  N16  1  0.16666667  0.33333333  0.46868396  1
  N  N17  1  0.33448842  0.16551158  0.22050220  1
  N  N18  1  0.16666667  0.33333333  0.97248429  1
  N  N19  1  0.33309446  0.16690554  0.72052407  1
  N  N20  1  0.16731912  0.83365956  0.46968811  1
  N  N21  1  0.33448842  0.66897684  0.22050220  1
  N  N22  1  0.16730615  0.83365307  0.97139350  1
  N  N23  1  0.33309446  0.66618891  0.72052407  1
  N  N24  1  0.66634044  0.33268088  0.46968811  1
  N  N25  1  0.83102316  0.16551158  0.22050220  1
  N  N26  1  0.66634693  0.33269385  0.97139350  1
  N  N27  1  0.83381109  0.16690554  0.72052407  1
  N  N28  1  0.66634044  0.83365956  0.46968811  1
  N  N29  1  0.83333333  0.66666667  0.22051625  1
  N  N30  1  0.66634693  0.83365307  0.97139350  1
  N  N31  1  0.83333333  0.66666667  0.72049127  1
