# generated using pymatgen
data_TiCr3N4
_symmetry_space_group_name_H-M   'P 1'
_cell_length_a   7.93234314
_cell_length_b   7.97530239
_cell_length_c   5.65747098
_cell_angle_alpha   89.78122619
_cell_angle_beta   90.40379224
_cell_angle_gamma   118.73280458
_symmetry_Int_Tables_number   1
_chemical_formula_structural   TiCr3N4
_chemical_formula_sum   'Ti4 Cr12 N16'
_cell_volume   313.83103557
_cell_formula_units_Z   4
loop_
 _symmetry_equiv_pos_site_id
 _symmetry_equiv_pos_as_xyz
  1  'x, y, z'
loop_
 _atom_site_type_symbol
 _atom_site_label
 _atom_site_symmetry_multiplicity
 _atom_site_fract_x
 _atom_site_fract_y
 _atom_site_fract_z
 _atom_site_occupancy
  Cr  Cr0  1  0.97167847  0.49490885  0.32120222  1
  Cr  Cr1  1  0.22000385  0.21012208  0.35128657  1
  Cr  Cr2  1  0.08749301  0.33626983  0.87724892  1
  Cr  Cr3  1  0.46268257  0.99289269  0.32015030  1
  Cr  Cr4  1  0.37502289  0.10868774  0.79784293  1
  Cr  Cr5  1  0.87650699  0.58814424  0.81456854  1
  Cr  Cr6  1  0.87758624  0.08975830  0.18617285  1
  Cr  Cr7  1  0.70594661  0.20485090  0.62988442  1
  Cr  Cr8  1  0.08524160  0.83225663  0.11805567  1
  Cr  Cr9  1  0.96630535  0.99805812  0.68271935  1
  Cr  Cr10  1  0.19801995  0.69353546  0.66818845  1
  Cr  Cr11  1  0.44101894  0.46198915  0.68086989  1
  N  N12  1  0.20964966  0.73896541  0.33756023  1
  N  N13  1  0.47318777  0.46338688  0.34576690  1
  N  N14  1  0.33543970  0.59240573  0.85091766  1
  N  N15  1  0.72589268  0.21510237  0.29729122  1
  N  N16  1  0.60594594  0.35474128  0.78928439  1
  N  N17  1  0.99462445  0.95878873  0.34687540  1
  N  N18  1  0.83557780  0.11232609  0.84770038  1
  N  N19  1  0.09193593  0.84737215  0.78194664  1
  N  N20  1  0.83835459  0.60159580  0.14607226  1
  N  N21  1  0.08864851  0.34348986  0.21759772  1
  N  N22  1  0.97512390  0.44380216  0.65533042  1
  N  N23  1  0.33216724  0.09573423  0.13652732  1
  N  N24  1  0.21572996  0.21574790  0.69225036  1
  N  N25  1  0.60031226  0.85361738  0.20229136  1
  N  N26  1  0.46532357  0.95770211  0.64930250  1
  N  N27  1  0.72652056  0.71926865  0.70417993  1
  Ti  Ti28  1  0.73062175  0.72219450  0.35787324  1
  Ti  Ti29  1  0.59688702  0.85051983  0.84740647  1
  Ti  Ti30  1  0.59181658  0.34463981  0.14455946  1
  Ti  Ti31  1  0.33873369  0.59712513  0.20107602  1
