# generated using pymatgen
data_AlCrN2
_symmetry_space_group_name_H-M   'P 1'
_cell_length_a   7.21291249
_cell_length_b   7.06606790
_cell_length_c   2.78296598
_cell_angle_alpha   90.00000000
_cell_angle_beta   90.00000000
_cell_angle_gamma   105.61536301
_symmetry_Int_Tables_number   1
_chemical_formula_structural   AlCrN2
_chemical_formula_sum   'Al4 Cr4 N8'
_cell_volume   136.60400500
_cell_formula_units_Z   4
loop_
 _symmetry_equiv_pos_site_id
 _symmetry_equiv_pos_as_xyz
  1  'x, y, z'
loop_
 _atom_site_type_symbol
 _atom_site_label
 _atom_site_symmetry_multiplicity
 _atom_site_fract_x
 _atom_site_fract_y
 _atom_site_fract_z
 _atom_site_occupancy
  Al  Al0  1  0.13780984  0.86322651  0.50000000  1
  Al  Al1  1  0.00963364  0.48839071  0.00000000  1
  Al  Al2  1  0.23565566  0.24123772  0.00000000  1
  Al  Al3  1  0.50587088  0.03663104  0.00000000  1
  N  N4  1  0.09586260  0.34265275  0.50000000  1
  N  N5  1  -0.00013912  0.98645268  0.00000000  1
  N  N6  1  0.35320077  0.10669721  0.50000000  1
  N  N7  1  0.24926948  0.72835050  0.00000000  1
  N  N8  1  0.61727335  0.88969582  0.50000000  1
  N  N9  1  0.45988252  0.46880240  0.00000000  1
  N  N10  1  0.89393105  0.63219675  0.50000000  1
  N  N11  1  0.73909922  0.26377031  0.00000000  1
  Cr  Cr12  1  0.86120079  0.10249802  0.50000000  1
  Cr  Cr13  1  0.76496710  0.76136604  0.00000000  1
  Cr  Cr14  1  0.43022990  0.65233315  0.50000000  1
  Cr  Cr15  1  0.64625232  0.43569838  0.50000000  1
