# generated using pymatgen
data_TiCrN2
_symmetry_space_group_name_H-M   'P 1'
_cell_length_a   8.20142004
_cell_length_b   8.24479617
_cell_length_c   8.16166118
_cell_angle_alpha   135.29118047
_cell_angle_beta   98.92009002
_cell_angle_gamma   98.29048724
_symmetry_Int_Tables_number   1
_chemical_formula_structural   TiCrN2
_chemical_formula_sum   'Ti8 Cr8 N16'
_cell_volume   356.93902796
_cell_formula_units_Z   8
loop_
 _symmetry_equiv_pos_site_id
 _symmetry_equiv_pos_as_xyz
  1  'x, y, z'
loop_
 _atom_site_type_symbol
 _atom_site_label
 _atom_site_symmetry_multiplicity
 _atom_site_fract_x
 _atom_site_fract_y
 _atom_site_fract_z
 _atom_site_occupancy
  Cr  Cr0  1  0.64906459  0.65918647  0.48356179  1
  Cr  Cr1  1  0.15029790  0.17226600  0.48419596  1
  Cr  Cr2  1  0.91668947  0.15575855  0.74283166  1
  Cr  Cr3  1  0.40975069  0.15811257  0.24051036  1
  Cr  Cr4  1  0.06275619  0.84122933  0.75148142  1
  Cr  Cr5  1  0.83409791  0.84719610  0.98277998  1
  Cr  Cr6  1  0.05985856  0.31524389  0.22431754  1
  Cr  Cr7  1  0.82986455  0.35423242  0.49618226  1
  N  N8  1  0.47525548  0.66337041  0.30446801  1
  N  N9  1  0.97297076  0.17276849  0.31820115  1
  N  N10  1  0.20915957  0.65361362  0.56047647  1
  N  N11  1  0.98174912  0.66942427  0.81936105  1
  N  N12  1  0.76622970  0.19297003  0.58157171  1
  N  N13  1  0.48461232  0.17162374  0.81677511  1
  N  N14  1  0.74977195  0.67734911  0.06457955  1
  N  N15  1  0.22562428  0.15990574  0.08511590  1
  N  N16  1  0.88514762  0.83675102  0.58076031  1
  N  N17  1  0.39314256  0.30892565  0.55040470  1
  N  N18  1  0.64511928  0.82180459  0.80122032  1
  N  N19  1  0.41212276  0.83476691  0.07012433  1
  N  N20  1  0.14489429  0.31817079  0.79651812  1
  N  N21  1  0.89787147  0.33493419  0.05542554  1
  N  N22  1  0.15765286  0.85143040  0.32890025  1
  N  N23  1  0.64028946  0.34241955  0.32960639  1
  Ti  Ti24  1  0.40033847  0.64255910  0.72354537  1
  Ti  Ti25  1  0.16848918  0.66594285  0.99365958  1
  Ti  Ti26  1  0.66754837  0.16699316  0.00478300  1
  Ti  Ti27  1  0.92264612  0.68204523  0.26666078  1
  Ti  Ti28  1  0.59755773  0.33822944  0.74467953  1
  Ti  Ti29  1  0.60580004  0.84869270  0.26269921  1
  Ti  Ti30  1  0.31804484  0.31564242  0.99368176  1
  Ti  Ti31  1  0.32558190  0.82644126  0.50092086  1
