# generated using pymatgen
data_Al3CrN4
_symmetry_space_group_name_H-M   'P 1'
_cell_length_a   6.29746457
_cell_length_b   6.29746457
_cell_length_c   4.98888227
_cell_angle_alpha   90.94119728
_cell_angle_beta   89.05880273
_cell_angle_gamma   120.07864591
_symmetry_Int_Tables_number   1
_chemical_formula_structural   Al3CrN4
_chemical_formula_sum   'Al6 Cr2 N8'
_cell_volume   171.17587635
_cell_formula_units_Z   2
loop_
 _symmetry_equiv_pos_site_id
 _symmetry_equiv_pos_as_xyz
  1  'x, y, z'
loop_
 _atom_site_type_symbol
 _atom_site_label
 _atom_site_symmetry_multiplicity
 _atom_site_fract_x
 _atom_site_fract_y
 _atom_site_fract_z
 _atom_site_occupancy
  Al  Al0  1  0.16610585  0.33389415  0.49513921  1
  Al  Al1  1  0.33590064  0.16409936  0.00574929  1
  Al  Al2  1  0.16573241  0.83426759  0.49831586  1
  Al  Al3  1  0.66573241  0.33426759  0.49831586  1
  Al  Al4  1  0.66610585  0.83389415  0.49513921  1
  Al  Al5  1  0.83590064  0.66409936  0.00574929  1
  N  N6  1  0.16720160  0.33279840  0.89033577  1
  N  N7  1  0.33310268  0.16689732  0.38548351  1
  N  N8  1  0.16197443  0.83802557  0.88028461  1
  N  N9  1  0.33390678  0.66609322  0.38951508  1
  N  N10  1  0.66197443  0.33802557  0.88028461  1
  N  N11  1  0.83390678  0.16609322  0.38951508  1
  N  N12  1  0.66720160  0.83279840  0.89033577  1
  N  N13  1  0.83310268  0.66689732  0.38548351  1
  Cr  Cr14  1  0.33607561  0.66392439  0.98317668  1
  Cr  Cr15  1  0.83607561  0.16392439  0.98317668  1
