# generated using pymatgen
data_ZrTaTiVWC5
_symmetry_space_group_name_H-M   'P 1'
_cell_length_a   6.99372966
_cell_length_b   6.99362648
_cell_length_c   4.42049759
_cell_angle_alpha   90.00000000
_cell_angle_beta   90.00000000
_cell_angle_gamma   90.20065834
_symmetry_Int_Tables_number   1
_chemical_formula_structural   ZrTaTiVWC5
_chemical_formula_sum   'Zr2 Ta2 Ti2 V2 W2 C10'
_cell_volume   216.21198753
_cell_formula_units_Z   2
loop_
 _symmetry_equiv_pos_site_id
 _symmetry_equiv_pos_as_xyz
  1  'x, y, z'
loop_
 _atom_site_type_symbol
 _atom_site_label
 _atom_site_symmetry_multiplicity
 _atom_site_fract_x
 _atom_site_fract_y
 _atom_site_fract_z
 _atom_site_occupancy
  C  C0  1  0.30617817  0.90175003  0.00000000  1
  C  C1  1  0.48975345  0.50210059  0.00000000  1
  C  C2  1  0.40624737  0.19907902  0.50000000  1
  C  C3  1  0.10925217  0.30134110  0.00000000  1
  C  C4  1  0.00049180  0.00644030  0.50000000  1
  C  C5  1  0.69418151  0.08684627  0.00000000  1
  C  C6  1  0.59040859  0.80254916  0.50000000  1
  C  C7  1  0.20935354  0.60299037  0.50000000  1
  C  C8  1  0.89958930  0.70875805  0.00000000  1
  C  C9  1  0.79704471  0.38942661  0.50000000  1
  V  V10  1  0.68544858  0.09796535  0.50000000  1
  V  V11  1  0.59496232  0.80605243  0.00000000  1
  Ta  Ta12  1  0.10685689  0.29817003  0.50000000  1
  Ta  Ta13  1  0.99721304  0.00207457  0.00000000  1
  Ti  Ti14  1  0.49883252  0.49685629  0.50000000  1
  Ti  Ti15  1  0.40506126  0.19396349  0.00000000  1
  W  W16  1  0.31442617  0.90363402  0.50000000  1
  W  W17  1  0.21125773  0.59953363  0.00000000  1
  Zr  Zr18  1  0.89257571  0.70423409  0.50000000  1
  Zr  Zr19  1  0.79086517  0.39623459  0.00000000  1
