# generated using pymatgen
data_ZrTaTiVTcC5
_symmetry_space_group_name_H-M   'P 1'
_cell_length_a   6.97742520
_cell_length_b   6.98403785
_cell_length_c   4.40386348
_cell_angle_alpha   90.00000000
_cell_angle_beta   90.00000000
_cell_angle_gamma   90.01353458
_symmetry_Int_Tables_number   1
_chemical_formula_structural   ZrTaTiVTcC5
_chemical_formula_sum   'Zr2 Ta2 Ti2 V2 Tc2 C10'
_cell_volume   214.60291131
_cell_formula_units_Z   2
loop_
 _symmetry_equiv_pos_site_id
 _symmetry_equiv_pos_as_xyz
  1  'x, y, z'
loop_
 _atom_site_type_symbol
 _atom_site_label
 _atom_site_symmetry_multiplicity
 _atom_site_fract_x
 _atom_site_fract_y
 _atom_site_fract_z
 _atom_site_occupancy
  C  C0  1  0.30833317  0.89556649  0.00000000  1
  C  C1  1  0.49132616  0.50485841  0.00000000  1
  C  C2  1  0.40977314  0.20648734  0.50000000  1
  C  C3  1  0.10811514  0.29269314  0.00000000  1
  C  C4  1  0.99716300  0.00759322  0.50000000  1
  C  C5  1  0.69145763  0.08540514  0.00000000  1
  C  C6  1  0.59060294  0.80575190  0.50000000  1
  C  C7  1  0.21228170  0.60979899  0.50000000  1
  C  C8  1  0.89641234  0.71049226  0.00000000  1
  C  C9  1  0.79809357  0.38985661  0.50000000  1
  V  V10  1  0.67891685  0.09652327  0.50000000  1
  V  V11  1  0.58684720  0.80609646  0.00000000  1
  Ta  Ta12  1  0.10966514  0.29710798  0.50000000  1
  Ta  Ta13  1  0.00653286  0.99948193  0.00000000  1
  Ti  Ti14  1  0.49553052  0.50455210  0.50000000  1
  Ti  Ti15  1  0.40407134  0.19828704  0.00000000  1
  Tc  Tc16  1  0.31676516  0.91263927  0.50000000  1
  Tc  Tc17  1  0.20693075  0.57697528  0.00000000  1
  Zr  Zr18  1  0.89947298  0.70375337  0.50000000  1
  Zr  Zr19  1  0.79170841  0.39607982  0.00000000  1
