# generated using pymatgen
data_ZrTaTiVRuC5
_symmetry_space_group_name_H-M   'P 1'
_cell_length_a   6.98522311
_cell_length_b   6.96851833
_cell_length_c   4.41694572
_cell_angle_alpha   90.00000000
_cell_angle_beta   90.00000000
_cell_angle_gamma   90.15088480
_symmetry_Int_Tables_number   1
_chemical_formula_structural   ZrTaTiVRuC5
_chemical_formula_sum   'Zr2 Ta2 Ti2 V2 Ru2 C10'
_cell_volume   215.00139879
_cell_formula_units_Z   2
loop_
 _symmetry_equiv_pos_site_id
 _symmetry_equiv_pos_as_xyz
  1  'x, y, z'
loop_
 _atom_site_type_symbol
 _atom_site_label
 _atom_site_symmetry_multiplicity
 _atom_site_fract_x
 _atom_site_fract_y
 _atom_site_fract_z
 _atom_site_occupancy
  C  C0  1  0.30799946  0.88951529  0.00000000  1
  C  C1  1  0.49510930  0.50642937  0.00000000  1
  C  C2  1  0.41034999  0.21053957  0.50000000  1
  C  C3  1  0.10864113  0.28796259  0.00000000  1
  C  C4  1  0.99691243  0.00851521  0.50000000  1
  C  C5  1  0.68745577  0.08452811  0.00000000  1
  C  C6  1  0.59027144  0.80672140  0.50000000  1
  C  C7  1  0.21531890  0.61550895  0.50000000  1
  C  C8  1  0.90084087  0.70896903  0.00000000  1
  C  C9  1  0.79956758  0.39005993  0.50000000  1
  V  V10  1  0.67215922  0.09460521  0.50000000  1
  V  V11  1  0.57543928  0.80626234  0.00000000  1
  Ta  Ta12  1  0.11168383  0.29607306  0.50000000  1
  Ta  Ta13  1  0.01138113  0.99453160  0.00000000  1
  Ti  Ti14  1  0.49669665  0.51241210  0.50000000  1
  Ti  Ti15  1  0.40328855  0.20241884  0.00000000  1
  Ru  Ru16  1  0.31053436  0.91291392  0.50000000  1
  Ru  Ru17  1  0.20908099  0.57331248  0.00000000  1
  Zr  Zr18  1  0.90319631  0.70327064  0.50000000  1
  Zr  Zr19  1  0.79407281  0.39545037  0.00000000  1
