# generated using pymatgen
data_ZrTaTiVReC5
_symmetry_space_group_name_H-M   'P 1'
_cell_length_a   6.98079077
_cell_length_b   7.00138997
_cell_length_c   4.40338541
_cell_angle_alpha   90.00000000
_cell_angle_beta   90.00000000
_cell_angle_gamma   89.95281098
_symmetry_Int_Tables_number   1
_chemical_formula_structural   ZrTaTiVReC5
_chemical_formula_sum   'Zr2 Ta2 Ti2 V2 Re2 C10'
_cell_volume   215.21643918
_cell_formula_units_Z   2
loop_
 _symmetry_equiv_pos_site_id
 _symmetry_equiv_pos_as_xyz
  1  'x, y, z'
loop_
 _atom_site_type_symbol
 _atom_site_label
 _atom_site_symmetry_multiplicity
 _atom_site_fract_x
 _atom_site_fract_y
 _atom_site_fract_z
 _atom_site_occupancy
  C  C0  1  0.30702394  0.89476041  0.00000000  1
  C  C1  1  0.49053034  0.50383346  0.00000000  1
  C  C2  1  0.40852772  0.20593123  0.50000000  1
  C  C3  1  0.10718626  0.29362137  0.00000000  1
  C  C4  1  0.99874682  0.00719605  0.50000000  1
  C  C5  1  0.69273645  0.08532522  0.00000000  1
  C  C6  1  0.59139186  0.80494596  0.50000000  1
  C  C7  1  0.21197449  0.61174815  0.50000000  1
  C  C8  1  0.89846128  0.70939372  0.00000000  1
  C  C9  1  0.79833812  0.39095525  0.50000000  1
  V  V10  1  0.68137900  0.09721842  0.50000000  1
  V  V11  1  0.59114728  0.80815221  0.00000000  1
  Ta  Ta12  1  0.10771129  0.29709338  0.50000000  1
  Ta  Ta13  1  0.00389317  0.00206584  0.00000000  1
  Ti  Ti14  1  0.49535198  0.50005023  0.50000000  1
  Ti  Ti15  1  0.40430933  0.19669531  0.00000000  1
  Re  Re16  1  0.31841972  0.91507716  0.50000000  1
  Re  Re17  1  0.20525320  0.57582719  0.00000000  1
  Zr  Zr18  1  0.89772405  0.70412419  0.50000000  1
  Zr  Zr19  1  0.78989368  0.39598525  0.00000000  1
