# generated using pymatgen
data_ZrTaTiVPdC5
_symmetry_space_group_name_H-M   'P 1'
_cell_length_a   6.99331635
_cell_length_b   6.99757393
_cell_length_c   4.49379447
_cell_angle_alpha   90.00000000
_cell_angle_beta   90.00000000
_cell_angle_gamma   90.08367800
_symmetry_Int_Tables_number   1
_chemical_formula_structural   ZrTaTiVPdC5
_chemical_formula_sum   'Zr2 Ta2 Ti2 V2 Pd2 C10'
_cell_volume   219.90920699
_cell_formula_units_Z   2
loop_
 _symmetry_equiv_pos_site_id
 _symmetry_equiv_pos_as_xyz
  1  'x, y, z'
loop_
 _atom_site_type_symbol
 _atom_site_label
 _atom_site_symmetry_multiplicity
 _atom_site_fract_x
 _atom_site_fract_y
 _atom_site_fract_z
 _atom_site_occupancy
  C  C0  1  0.30806383  0.89452749  0.00000000  1
  C  C1  1  0.49772151  0.50685596  0.00000000  1
  C  C2  1  0.41137194  0.20733591  0.50000000  1
  C  C3  1  0.10760335  0.28642703  0.00000000  1
  C  C4  1  0.99794990  0.00623611  0.50000000  1
  C  C5  1  0.68715729  0.08723331  0.00000000  1
  C  C6  1  0.59393376  0.80673339  0.50000000  1
  C  C7  1  0.21291199  0.59572107  0.50000000  1
  C  C8  1  0.89716093  0.71053524  0.00000000  1
  C  C9  1  0.80009588  0.38996337  0.50000000  1
  V  V10  1  0.67285274  0.10211786  0.50000000  1
  V  V11  1  0.57749680  0.81329361  0.00000000  1
  Ta  Ta12  1  0.11079585  0.28954602  0.50000000  1
  Ta  Ta13  1  0.00456663  0.99050170  0.00000000  1
  Ti  Ti14  1  0.50134041  0.51712330  0.50000000  1
  Ti  Ti15  1  0.40540668  0.21134080  0.00000000  1
  Pd  Pd16  1  0.30630465  0.89962980  0.50000000  1
  Pd  Pd17  1  0.20219172  0.58917931  0.00000000  1
  Zr  Zr18  1  0.90691256  0.70025840  0.50000000  1
  Zr  Zr19  1  0.79816159  0.39544032  0.00000000  1
