# generated using pymatgen
data_ZrTaTiVNiC5
_symmetry_space_group_name_H-M   'P 1'
_cell_length_a   6.92661009
_cell_length_b   6.89419012
_cell_length_c   4.45366418
_cell_angle_alpha   90.00000000
_cell_angle_beta   90.00000000
_cell_angle_gamma   90.20357560
_symmetry_Int_Tables_number   1
_chemical_formula_structural   ZrTaTiVNiC5
_chemical_formula_sum   'Zr2 Ta2 Ti2 V2 Ni2 C10'
_cell_volume   212.67611686
_cell_formula_units_Z   2
loop_
 _symmetry_equiv_pos_site_id
 _symmetry_equiv_pos_as_xyz
  1  'x, y, z'
loop_
 _atom_site_type_symbol
 _atom_site_label
 _atom_site_symmetry_multiplicity
 _atom_site_fract_x
 _atom_site_fract_y
 _atom_site_fract_z
 _atom_site_occupancy
  C  C0  1  0.30599042  0.88891282  0.00000000  1
  C  C1  1  0.48889664  0.50924757  0.00000000  1
  C  C2  1  0.40785613  0.19827911  0.50000000  1
  C  C3  1  0.11055175  0.29787022  0.00000000  1
  C  C4  1  0.01174685  0.00488647  0.50000000  1
  C  C5  1  0.68705952  0.08579645  0.00000000  1
  C  C6  1  0.58449631  0.80818413  0.50000000  1
  C  C7  1  0.21422858  0.60560792  0.50000000  1
  C  C8  1  0.90895033  0.70763653  0.00000000  1
  C  C9  1  0.79632999  0.38979066  0.50000000  1
  V  V10  1  0.67070999  0.10038474  0.50000000  1
  V  V11  1  0.57019865  0.80923620  0.00000000  1
  Ta  Ta12  1  0.11272261  0.29812874  0.50000000  1
  Ta  Ta13  1  0.00978548  0.99211037  0.00000000  1
  Ti  Ti14  1  0.49845693  0.51663609  0.50000000  1
  Ti  Ti15  1  0.40328120  0.20804160  0.00000000  1
  Ni  Ni16  1  0.30856287  0.88948478  0.50000000  1
  Ni  Ni17  1  0.20836946  0.59022604  0.00000000  1
  Zr  Zr18  1  0.90537551  0.70335397  0.50000000  1
  Zr  Zr19  1  0.79643077  0.39618558  0.00000000  1
