# generated using pymatgen
data_ZrTaTiNbVC5
_symmetry_space_group_name_H-M   'P 1'
_cell_length_a   7.01390418
_cell_length_b   7.02180879
_cell_length_c   4.46503082
_cell_angle_alpha   90.00000000
_cell_angle_beta   90.00000000
_cell_angle_gamma   90.05383462
_symmetry_Int_Tables_number   1
_chemical_formula_structural   ZrTaTiNbVC5
_chemical_formula_sum   'Zr2 Ta2 Ti2 Nb2 V2 C10'
_cell_volume   219.90398362
_cell_formula_units_Z   2
loop_
 _symmetry_equiv_pos_site_id
 _symmetry_equiv_pos_as_xyz
  1  'x, y, z'
loop_
 _atom_site_type_symbol
 _atom_site_label
 _atom_site_symmetry_multiplicity
 _atom_site_fract_x
 _atom_site_fract_y
 _atom_site_fract_z
 _atom_site_occupancy
  C  C0  1  0.30653390  0.90501556  0.00000000  1
  C  C1  1  0.49410532  0.50191419  0.00000000  1
  C  C2  1  0.40806869  0.20110386  0.50000000  1
  C  C3  1  0.10861126  0.29580326  0.00000000  1
  C  C4  1  0.99611018  0.00618059  0.50000000  1
  C  C5  1  0.69400053  0.08702224  0.00000000  1
  C  C6  1  0.59329638  0.80523397  0.50000000  1
  C  C7  1  0.20933829  0.59827962  0.50000000  1
  C  C8  1  0.89481720  0.70911240  0.00000000  1
  C  C9  1  0.79491301  0.38867592  0.50000000  1
  V  V10  1  0.68731508  0.10013043  0.50000000  1
  V  V11  1  0.59788646  0.80930301  0.00000000  1
  Ta  Ta12  1  0.10862023  0.29935411  0.50000000  1
  Ta  Ta13  1  0.99996944  0.00076572  0.00000000  1
  Ti  Ti14  1  0.50110281  0.50022158  0.50000000  1
  Ti  Ti15  1  0.40446436  0.19630806  0.00000000  1
  Nb  Nb16  1  0.30747758  0.89854155  0.50000000  1
  Nb  Nb17  1  0.20663208  0.60024713  0.00000000  1
  Zr  Zr18  1  0.89297173  0.70236899  0.50000000  1
  Zr  Zr19  1  0.79376548  0.39441779  0.00000000  1
