# generated using pymatgen
data_ZrTaTiVMoC5
_symmetry_space_group_name_H-M   'P 1'
_cell_length_a   6.99850148
_cell_length_b   6.99053217
_cell_length_c   4.41665323
_cell_angle_alpha   90.00000000
_cell_angle_beta   90.00000000
_cell_angle_gamma   90.32317768
_symmetry_Int_Tables_number   1
_chemical_formula_structural   ZrTaTiVMoC5
_chemical_formula_sum   'Zr2 Ta2 Ti2 V2 Mo2 C10'
_cell_volume   216.07359179
_cell_formula_units_Z   2
loop_
 _symmetry_equiv_pos_site_id
 _symmetry_equiv_pos_as_xyz
  1  'x, y, z'
loop_
 _atom_site_type_symbol
 _atom_site_label
 _atom_site_symmetry_multiplicity
 _atom_site_fract_x
 _atom_site_fract_y
 _atom_site_fract_z
 _atom_site_occupancy
  C  C0  1  0.30739744  0.90345437  0.00000000  1
  C  C1  1  0.49195846  0.50216095  0.00000000  1
  C  C2  1  0.40760922  0.20059777  0.50000000  1
  C  C3  1  0.10973181  0.29895674  0.00000000  1
  C  C4  1  0.99785151  0.00739119  0.50000000  1
  C  C5  1  0.69314185  0.08630029  0.00000000  1
  C  C6  1  0.59127020  0.80243946  0.50000000  1
  C  C7  1  0.20955197  0.60098695  0.50000000  1
  C  C8  1  0.89622150  0.71096896  0.00000000  1
  C  C9  1  0.79734865  0.38868663  0.50000000  1
  V  V10  1  0.68137425  0.09637174  0.50000000  1
  V  V11  1  0.59038695  0.80528292  0.00000000  1
  Ta  Ta12  1  0.10907907  0.29782824  0.50000000  1
  Ta  Ta13  1  0.99992853  0.99929677  0.00000000  1
  Ti  Ti14  1  0.49900449  0.50132941  0.50000000  1
  Ti  Ti15  1  0.40411038  0.19602184  0.00000000  1
  Mo  Mo16  1  0.31296242  0.90021935  0.50000000  1
  Mo  Mo17  1  0.21440536  0.60230271  0.00000000  1
  Zr  Zr18  1  0.89452912  0.70366038  0.50000000  1
  Zr  Zr19  1  0.79213682  0.39574333  0.00000000  1
