# generated using pymatgen
data_LuZrTaTiVC5
_symmetry_space_group_name_H-M   'P 1'
_cell_length_a   7.10985321
_cell_length_b   7.15957059
_cell_length_c   4.53347785
_cell_angle_alpha   90.00000000
_cell_angle_beta   90.00000000
_cell_angle_gamma   90.01738823
_symmetry_Int_Tables_number   1
_chemical_formula_structural   LuZrTaTiVC5
_chemical_formula_sum   'Lu2 Zr2 Ta2 Ti2 V2 C10'
_cell_volume   230.76986070
_cell_formula_units_Z   2
loop_
 _symmetry_equiv_pos_site_id
 _symmetry_equiv_pos_as_xyz
  1  'x, y, z'
loop_
 _atom_site_type_symbol
 _atom_site_label
 _atom_site_symmetry_multiplicity
 _atom_site_fract_x
 _atom_site_fract_y
 _atom_site_fract_z
 _atom_site_occupancy
  C  C0  1  0.30910165  0.91593707  0.00000000  1
  C  C1  1  0.50652987  0.49798186  0.00000000  1
  C  C2  1  0.41094547  0.20908458  0.50000000  1
  C  C3  1  0.10442082  0.28691565  0.00000000  1
  C  C4  1  0.98673931  0.00760228  0.50000000  1
  C  C5  1  0.69364928  0.08851829  0.00000000  1
  C  C6  1  0.60429537  0.80838090  0.50000000  1
  C  C7  1  0.20496481  0.58079935  0.50000000  1
  C  C8  1  0.88299541  0.71334065  0.00000000  1
  C  C9  1  0.79591726  0.38862381  0.50000000  1
  V  V10  1  0.69282920  0.09899037  0.50000000  1
  V  V11  1  0.59948134  0.81290090  0.00000000  1
  Ta  Ta12  1  0.10628004  0.29756347  0.50000000  1
  Ta  Ta13  1  0.99572899  0.99980694  0.00000000  1
  Ti  Ti14  1  0.50333748  0.49725558  0.50000000  1
  Ti  Ti15  1  0.40712678  0.20132376  0.00000000  1
  Lu  Lu16  1  0.30230477  0.90219615  0.50000000  1
  Lu  Lu17  1  0.20404698  0.60033926  0.00000000  1
  Zr  Zr18  1  0.89336600  0.69965167  0.50000000  1
  Zr  Zr19  1  0.79593920  0.39278749  0.00000000  1
