# generated using pymatgen
data_ZrTaTiVIrC5
_symmetry_space_group_name_H-M   'P 1'
_cell_length_a   6.99412664
_cell_length_b   6.97414301
_cell_length_c   4.45741805
_cell_angle_alpha   90.00000000
_cell_angle_beta   90.00000000
_cell_angle_gamma   90.30811748
_symmetry_Int_Tables_number   1
_chemical_formula_structural   ZrTaTiVIrC5
_chemical_formula_sum   'Zr2 Ta2 Ti2 V2 Ir2 C10'
_cell_volume   217.42096958
_cell_formula_units_Z   2
loop_
 _symmetry_equiv_pos_site_id
 _symmetry_equiv_pos_as_xyz
  1  'x, y, z'
loop_
 _atom_site_type_symbol
 _atom_site_label
 _atom_site_symmetry_multiplicity
 _atom_site_fract_x
 _atom_site_fract_y
 _atom_site_fract_z
 _atom_site_occupancy
  C  C0  1  0.30284073  0.88454140  0.00000000  1
  C  C1  1  0.49731866  0.50613806  0.00000000  1
  C  C2  1  0.41034091  0.21225369  0.50000000  1
  C  C3  1  0.10758501  0.28434921  0.00000000  1
  C  C4  1  0.99873771  0.00867602  0.50000000  1
  C  C5  1  0.68594358  0.08437433  0.00000000  1
  C  C6  1  0.59334819  0.80704715  0.50000000  1
  C  C7  1  0.21633733  0.61469781  0.50000000  1
  C  C8  1  0.90143590  0.70847748  0.00000000  1
  C  C9  1  0.80285650  0.39109059  0.50000000  1
  V  V10  1  0.67020379  0.09618951  0.50000000  1
  V  V11  1  0.57427514  0.80868531  0.00000000  1
  Ta  Ta12  1  0.11125955  0.29560521  0.50000000  1
  Ta  Ta13  1  0.00731380  0.99430899  0.00000000  1
  Ti  Ti14  1  0.49735006  0.51669658  0.50000000  1
  Ti  Ti15  1  0.40340089  0.20562371  0.00000000  1
  Ir  Ir16  1  0.31346528  0.91211704  0.50000000  1
  Ir  Ir17  1  0.20574375  0.57072856  0.00000000  1
  Zr  Zr18  1  0.90627570  0.70261674  0.50000000  1
  Zr  Zr19  1  0.79396753  0.39578260  0.00000000  1
