# generated using pymatgen
data_ZrTaTiVFeC5
_symmetry_space_group_name_H-M   'P 1'
_cell_length_a   6.94549214
_cell_length_b   6.86655578
_cell_length_c   4.39454957
_cell_angle_alpha   90.00000000
_cell_angle_beta   90.00000000
_cell_angle_gamma   90.09289046
_symmetry_Int_Tables_number   1
_chemical_formula_structural   ZrTaTiVFeC5
_chemical_formula_sum   'Zr2 Ta2 Ti2 V2 Fe2 C10'
_cell_volume   209.58286539
_cell_formula_units_Z   2
loop_
 _symmetry_equiv_pos_site_id
 _symmetry_equiv_pos_as_xyz
  1  'x, y, z'
loop_
 _atom_site_type_symbol
 _atom_site_label
 _atom_site_symmetry_multiplicity
 _atom_site_fract_x
 _atom_site_fract_y
 _atom_site_fract_z
 _atom_site_occupancy
  C  C0  1  0.30794367  0.89099851  0.00000000  1
  C  C1  1  0.48712682  0.50842076  0.00000000  1
  C  C2  1  0.40754941  0.19929270  0.50000000  1
  C  C3  1  0.11250211  0.30164833  0.00000000  1
  C  C4  1  0.01131922  0.00676186  0.50000000  1
  C  C5  1  0.68732282  0.08522958  0.00000000  1
  C  C6  1  0.58156447  0.80886113  0.50000000  1
  C  C7  1  0.21373366  0.61616249  0.50000000  1
  C  C8  1  0.90919391  0.70861340  0.00000000  1
  C  C9  1  0.79575510  0.38777585  0.50000000  1
  V  V10  1  0.66983485  0.09822101  0.50000000  1
  V  V11  1  0.57222512  0.80708798  0.00000000  1
  Ta  Ta12  1  0.11425437  0.30561324  0.50000000  1
  Ta  Ta13  1  0.01777643  0.99588003  0.00000000  1
  Ti  Ti14  1  0.49554522  0.51456527  0.50000000  1
  Ti  Ti15  1  0.40296105  0.20334985  0.00000000  1
  Fe  Fe16  1  0.30694225  0.88355502  0.50000000  1
  Fe  Fe17  1  0.21468613  0.57405695  0.00000000  1
  Zr  Zr18  1  0.89943842  0.70683972  0.50000000  1
  Zr  Zr19  1  0.79232496  0.39706633  0.00000000  1
