# generated using pymatgen
data_ZrTaTiVCuC5
_symmetry_space_group_name_H-M   'P 1'
_cell_length_a   6.93341076
_cell_length_b   7.07633359
_cell_length_c   4.43056908
_cell_angle_alpha   90.00000000
_cell_angle_beta   90.00000000
_cell_angle_gamma   88.54137119
_symmetry_Int_Tables_number   1
_chemical_formula_structural   ZrTaTiVCuC5
_chemical_formula_sum   'Zr2 Ta2 Ti2 V2 Cu2 C10'
_cell_volume   217.30713782
_cell_formula_units_Z   2
loop_
 _symmetry_equiv_pos_site_id
 _symmetry_equiv_pos_as_xyz
  1  'x, y, z'
loop_
 _atom_site_type_symbol
 _atom_site_label
 _atom_site_symmetry_multiplicity
 _atom_site_fract_x
 _atom_site_fract_y
 _atom_site_fract_z
 _atom_site_occupancy
  C  C0  1  0.31599652  0.90654502  0.00000000  1
  C  C1  1  0.49043984  0.51319894  0.00000000  1
  C  C2  1  0.41223034  0.20886210  0.50000000  1
  C  C3  1  0.10674778  0.28122440  0.00000000  1
  C  C4  1  0.00881831  0.99615320  0.50000000  1
  C  C5  1  0.68957150  0.09141434  0.00000000  1
  C  C6  1  0.58660222  0.81338381  0.50000000  1
  C  C7  1  0.20770707  0.58369332  0.50000000  1
  C  C8  1  0.90715098  0.70572254  0.00000000  1
  C  C9  1  0.79897528  0.38802726  0.50000000  1
  V  V10  1  0.67460943  0.10731514  0.50000000  1
  V  V11  1  0.57415895  0.82527965  0.00000000  1
  Ta  Ta12  1  0.10899541  0.28281445  0.50000000  1
  Ta  Ta13  1  0.01093579  0.98552103  0.00000000  1
  Ti  Ti14  1  0.49214363  0.52195134  0.50000000  1
  Ti  Ti15  1  0.40446041  0.21859906  0.00000000  1
  Cu  Cu16  1  0.30243160  0.88645449  0.50000000  1
  Cu  Cu17  1  0.20310276  0.59287075  0.00000000  1
  Zr  Zr18  1  0.90851288  0.69597360  0.50000000  1
  Zr  Zr19  1  0.79640930  0.39499555  0.00000000  1
