# generated using pymatgen
data_ZrTaTiVCoC5
_symmetry_space_group_name_H-M   'P 1'
_cell_length_a   6.93618815
_cell_length_b   6.86218146
_cell_length_c   4.42179796
_cell_angle_alpha   90.00000000
_cell_angle_beta   90.00000000
_cell_angle_gamma   90.32573626
_symmetry_Int_Tables_number   1
_chemical_formula_structural   ZrTaTiVCoC5
_chemical_formula_sum   'Zr2 Ta2 Ti2 V2 Co2 C10'
_cell_volume   210.46260407
_cell_formula_units_Z   2
loop_
 _symmetry_equiv_pos_site_id
 _symmetry_equiv_pos_as_xyz
  1  'x, y, z'
loop_
 _atom_site_type_symbol
 _atom_site_label
 _atom_site_symmetry_multiplicity
 _atom_site_fract_x
 _atom_site_fract_y
 _atom_site_fract_z
 _atom_site_occupancy
  C  C0  1  0.30531283  0.88759134  0.00000000  1
  C  C1  1  0.48877678  0.50857459  0.00000000  1
  C  C2  1  0.40693787  0.19777663  0.50000000  1
  C  C3  1  0.11275974  0.30097078  0.00000000  1
  C  C4  1  0.01231927  0.00680382  0.50000000  1
  C  C5  1  0.68689640  0.08551504  0.00000000  1
  C  C6  1  0.58247031  0.80880370  0.50000000  1
  C  C7  1  0.21361203  0.61114023  0.50000000  1
  C  C8  1  0.90586368  0.70990881  0.00000000  1
  C  C9  1  0.79554665  0.38888949  0.50000000  1
  V  V10  1  0.66944955  0.10014007  0.50000000  1
  V  V11  1  0.57178682  0.80633174  0.00000000  1
  Ta  Ta12  1  0.11496763  0.30668354  0.50000000  1
  Ta  Ta13  1  0.01398456  0.99542960  0.00000000  1
  Ti  Ti14  1  0.49665094  0.51645696  0.50000000  1
  Ti  Ti15  1  0.40318911  0.20393641  0.00000000  1
  Co  Co16  1  0.30838969  0.88379073  0.50000000  1
  Co  Co17  1  0.21553879  0.57756982  0.00000000  1
  Zr  Zr18  1  0.90213245  0.70638947  0.50000000  1
  Zr  Zr19  1  0.79341488  0.39729722  0.00000000  1
