# generated using pymatgen
data_ZrTaTiVAuC5
_symmetry_space_group_name_H-M   'P 1'
_cell_length_a   7.01338841
_cell_length_b   7.33800060
_cell_length_c   4.45202405
_cell_angle_alpha   90.00000000
_cell_angle_beta   90.00000000
_cell_angle_gamma   86.47840750
_symmetry_Int_Tables_number   1
_chemical_formula_structural   ZrTaTiVAuC5
_chemical_formula_sum   'Zr2 Ta2 Ti2 V2 Au2 C10'
_cell_volume   228.68742887
_cell_formula_units_Z   2
loop_
 _symmetry_equiv_pos_site_id
 _symmetry_equiv_pos_as_xyz
  1  'x, y, z'
loop_
 _atom_site_type_symbol
 _atom_site_label
 _atom_site_symmetry_multiplicity
 _atom_site_fract_x
 _atom_site_fract_y
 _atom_site_fract_z
 _atom_site_occupancy
  C  C0  1  0.32642669  0.92334514  0.00000000  1
  C  C1  1  0.49429558  0.50534027  0.00000000  1
  C  C2  1  0.41574322  0.21846072  0.50000000  1
  C  C3  1  0.10312254  0.26251390  0.00000000  1
  C  C4  1  0.99569726  0.99175977  0.50000000  1
  C  C5  1  0.69425284  0.09923013  0.00000000  1
  C  C6  1  0.59706544  0.81300651  0.50000000  1
  C  C7  1  0.20133727  0.55531900  0.50000000  1
  C  C8  1  0.89380136  0.71037073  0.00000000  1
  C  C9  1  0.80038174  0.38711132  0.50000000  1
  V  V10  1  0.67963127  0.12252968  0.50000000  1
  V  V11  1  0.59057344  0.84557108  0.00000000  1
  Ta  Ta12  1  0.10330985  0.26695008  0.50000000  1
  Ta  Ta13  1  0.00710490  0.98123390  0.00000000  1
  Ti  Ti14  1  0.49360290  0.52085161  0.50000000  1
  Ti  Ti15  1  0.40692786  0.22562342  0.00000000  1
  Au  Au16  1  0.30346940  0.89296829  0.50000000  1
  Au  Au17  1  0.19497467  0.59077068  0.00000000  1
  Zr  Zr18  1  0.90307635  0.69383713  0.50000000  1
  Zr  Zr19  1  0.79520544  0.39320663  0.00000000  1
