# generated using pymatgen
data_ZrTaTiVAgC5
_symmetry_space_group_name_H-M   'P 1'
_cell_length_a   7.01325591
_cell_length_b   7.22701633
_cell_length_c   4.46757250
_cell_angle_alpha   90.00000000
_cell_angle_beta   90.00000000
_cell_angle_gamma   88.23471384
_symmetry_Int_Tables_number   1
_chemical_formula_structural   ZrTaTiVAgC5
_chemical_formula_sum   'Zr2 Ta2 Ti2 V2 Ag2 C10'
_cell_volume   226.33106627
_cell_formula_units_Z   2
loop_
 _symmetry_equiv_pos_site_id
 _symmetry_equiv_pos_as_xyz
  1  'x, y, z'
loop_
 _atom_site_type_symbol
 _atom_site_label
 _atom_site_symmetry_multiplicity
 _atom_site_fract_x
 _atom_site_fract_y
 _atom_site_fract_z
 _atom_site_occupancy
  C  C0  1  0.32130670  0.91685979  0.00000000  1
  C  C1  1  0.50101381  0.50696874  0.00000000  1
  C  C2  1  0.41491729  0.21516885  0.50000000  1
  C  C3  1  0.10495974  0.26950776  0.00000000  1
  C  C4  1  0.99285598  0.99716074  0.50000000  1
  C  C5  1  0.69155520  0.09498122  0.00000000  1
  C  C6  1  0.59682648  0.81032806  0.50000000  1
  C  C7  1  0.20510271  0.56668162  0.50000000  1
  C  C8  1  0.89449157  0.71021756  0.00000000  1
  C  C9  1  0.80156624  0.38690566  0.50000000  1
  V  V10  1  0.67784345  0.11463588  0.50000000  1
  V  V11  1  0.58003302  0.83317278  0.00000000  1
  Ta  Ta12  1  0.10698724  0.27641855  0.50000000  1
  Ta  Ta13  1  0.00125721  0.98592211  0.00000000  1
  Ti  Ti14  1  0.49468687  0.51835075  0.50000000  1
  Ti  Ti15  1  0.40635435  0.21905849  0.00000000  1
  Ag  Ag16  1  0.30132524  0.89381484  0.50000000  1
  Ag  Ag17  1  0.20115396  0.59566362  0.00000000  1
  Zr  Zr18  1  0.90767984  0.69397974  0.50000000  1
  Zr  Zr19  1  0.79808311  0.39420325  0.00000000  1
