# generated using pymatgen
data_ZrTaTiVPtC5
_symmetry_space_group_name_H-M   'P 1'
_cell_length_a   6.99823523
_cell_length_b   6.99577832
_cell_length_c   4.49531342
_cell_angle_alpha   90.00000000
_cell_angle_beta   90.00000000
_cell_angle_gamma   89.54653582
_symmetry_Int_Tables_number   1
_chemical_formula_structural   ZrTaTiVPtC5
_chemical_formula_sum   'Zr2 Ta2 Ti2 V2 Pt2 C10'
_cell_volume   220.07512156
_cell_formula_units_Z   2
loop_
 _symmetry_equiv_pos_site_id
 _symmetry_equiv_pos_as_xyz
  1  'x, y, z'
loop_
 _atom_site_type_symbol
 _atom_site_label
 _atom_site_symmetry_multiplicity
 _atom_site_fract_x
 _atom_site_fract_y
 _atom_site_fract_z
 _atom_site_occupancy
  C  C0  1  0.30788811  0.87622374  0.00000000  1
  C  C1  1  0.49085519  0.50700685  0.00000000  1
  C  C2  1  0.41124632  0.21150297  0.50000000  1
  C  C3  1  0.10583251  0.28167700  0.00000000  1
  C  C4  1  0.00110028  0.00582620  0.50000000  1
  C  C5  1  0.68764303  0.08825354  0.00000000  1
  C  C6  1  0.59645682  0.80929895  0.50000000  1
  C  C7  1  0.21428375  0.60681289  0.50000000  1
  C  C8  1  0.89015850  0.71060901  0.00000000  1
  C  C9  1  0.80279126  0.38879674  0.50000000  1
  V  V10  1  0.67316375  0.10333168  0.50000000  1
  V  V11  1  0.59907770  0.81601113  0.00000000  1
  Ta  Ta12  1  0.10814643  0.28755815  0.50000000  1
  Ta  Ta13  1  0.01001066  0.99047402  0.00000000  1
  Ti  Ti14  1  0.49673205  0.52070641  0.50000000  1
  Ti  Ti15  1  0.40575929  0.20904889  0.00000000  1
  Pt  Pt16  1  0.31137405  0.90833683  0.50000000  1
  Pt  Pt17  1  0.19003704  0.58223888  0.00000000  1
  Zr  Zr18  1  0.90450896  0.70104734  0.50000000  1
  Zr  Zr19  1  0.79293427  0.39523880  0.00000000  1
