# generated using pymatgen
data_ZrTaTiVRhC5
_symmetry_space_group_name_H-M   'P 1'
_cell_length_a   6.99388563
_cell_length_b   6.95101887
_cell_length_c   4.45778816
_cell_angle_alpha   90.00000000
_cell_angle_beta   90.00000000
_cell_angle_gamma   90.35662128
_symmetry_Int_Tables_number   1
_chemical_formula_structural   ZrTaTiVRhC5
_chemical_formula_sum   'Zr2 Ta2 Ti2 V2 Rh2 C10'
_cell_volume   216.70952872
_cell_formula_units_Z   2
loop_
 _symmetry_equiv_pos_site_id
 _symmetry_equiv_pos_as_xyz
  1  'x, y, z'
loop_
 _atom_site_type_symbol
 _atom_site_label
 _atom_site_symmetry_multiplicity
 _atom_site_fract_x
 _atom_site_fract_y
 _atom_site_fract_z
 _atom_site_occupancy
  C  C0  1  0.30647921  0.89149091  0.00000000  1
  C  C1  1  0.49756515  0.50788673  0.00000000  1
  C  C2  1  0.41021108  0.20819096  0.50000000  1
  C  C3  1  0.10955327  0.28728446  0.00000000  1
  C  C4  1  0.99890797  0.00812536  0.50000000  1
  C  C5  1  0.68638254  0.08569943  0.00000000  1
  C  C6  1  0.59180285  0.80746055  0.50000000  1
  C  C7  1  0.21368975  0.60586821  0.50000000  1
  C  C8  1  0.89886932  0.71022442  0.00000000  1
  C  C9  1  0.80025980  0.38938296  0.50000000  1
  V  V10  1  0.67057765  0.09797503  0.50000000  1
  V  V11  1  0.57470715  0.80798182  0.00000000  1
  Ta  Ta12  1  0.11312985  0.29928268  0.50000000  1
  Ta  Ta13  1  0.00942189  0.99351026  0.00000000  1
  Ti  Ti14  1  0.49745577  0.51763373  0.50000000  1
  Ti  Ti15  1  0.40381138  0.20517682  0.00000000  1
  Rh  Rh16  1  0.30829286  0.90288781  0.50000000  1
  Rh  Rh17  1  0.20777889  0.57573722  0.00000000  1
  Zr  Zr18  1  0.90627947  0.70256663  0.50000000  1
  Zr  Zr19  1  0.79482416  0.39563402  0.00000000  1
