# generated using pymatgen
data_ZrTaTiVCdC5
_symmetry_space_group_name_H-M   'P 1'
_cell_length_a   7.13076157
_cell_length_b   7.24273929
_cell_length_c   4.49359884
_cell_angle_alpha   90.00000000
_cell_angle_beta   90.00000000
_cell_angle_gamma   89.46397130
_symmetry_Int_Tables_number   1
_chemical_formula_structural   ZrTaTiVCdC5
_chemical_formula_sum   'Zr2 Ta2 Ti2 V2 Cd2 C10'
_cell_volume   232.06735929
_cell_formula_units_Z   2
loop_
 _symmetry_equiv_pos_site_id
 _symmetry_equiv_pos_as_xyz
  1  'x, y, z'
loop_
 _atom_site_type_symbol
 _atom_site_label
 _atom_site_symmetry_multiplicity
 _atom_site_fract_x
 _atom_site_fract_y
 _atom_site_fract_z
 _atom_site_occupancy
  C  C0  1  0.32687649  0.92168583  0.00000000  1
  C  C1  1  0.51000903  0.50321753  0.00000000  1
  C  C2  1  0.41279436  0.21766708  0.50000000  1
  C  C3  1  0.10518892  0.27083507  0.00000000  1
  C  C4  1  0.97919846  0.00575019  0.50000000  1
  C  C5  1  0.69103559  0.09138495  0.00000000  1
  C  C6  1  0.60961044  0.81699180  0.50000000  1
  C  C7  1  0.20592261  0.56922338  0.50000000  1
  C  C8  1  0.89206393  0.71412159  0.00000000  1
  C  C9  1  0.80440460  0.39687697  0.50000000  1
  V  V10  1  0.68490610  0.08875959  0.50000000  1
  V  V11  1  0.57191436  0.83018457  0.00000000  1
  Ta  Ta12  1  0.10945241  0.28632046  0.50000000  1
  Ta  Ta13  1  0.98090211  0.99538103  0.00000000  1
  Ti  Ti14  1  0.49996582  0.50674740  0.50000000  1
  Ti  Ti15  1  0.40735756  0.20831421  0.00000000  1
  Cd  Cd16  1  0.29632054  0.89013840  0.50000000  1
  Cd  Cd17  1  0.20418987  0.59440862  0.00000000  1
  Zr  Zr18  1  0.90967033  0.69596040  0.50000000  1
  Zr  Zr19  1  0.79821648  0.39603094  0.00000000  1
