# generated using pymatgen
data_Zr7TiC8
_symmetry_space_group_name_H-M   'P 1'
_cell_length_a   5.78691952
_cell_length_b   6.68215908
_cell_length_c   11.08110723
_cell_angle_alpha   90.00000000
_cell_angle_beta   100.02498785
_cell_angle_gamma   90.00000000
_symmetry_Int_Tables_number   1
_chemical_formula_structural   Zr7TiC8
_chemical_formula_sum   'Zr14 Ti2 C16'
_cell_volume   421.95431264
_cell_formula_units_Z   2
loop_
 _symmetry_equiv_pos_site_id
 _symmetry_equiv_pos_as_xyz
  1  'x, y, z'
loop_
 _atom_site_type_symbol
 _atom_site_label
 _atom_site_symmetry_multiplicity
 _atom_site_fract_x
 _atom_site_fract_y
 _atom_site_fract_z
 _atom_site_occupancy
  C  C0  1  0.12569089  -0.00000000  0.37628726  1
  C  C1  1  0.13330565  0.50000000  0.37900530  1
  C  C2  1  0.62270361  0.25461965  0.37876987  1
  C  C3  1  0.37500000  0.26087135  0.62500000  1
  C  C4  1  0.12729639  0.25461965  0.87123013  1
  C  C5  1  0.87500000  -0.00000000  0.62500000  1
  C  C6  1  0.62430911  -0.00000000  0.87371274  1
  C  C7  1  0.37500000  -0.00000000  0.12500000  1
  C  C8  1  0.62270361  0.74538035  0.37876987  1
  C  C9  1  0.37500000  0.73912865  0.62500000  1
  C  C10  1  0.12729639  0.74538035  0.87123013  1
  C  C11  1  0.87500000  0.50000000  0.62500000  1
  C  C12  1  0.61669435  0.50000000  0.87099470  1
  C  C13  1  0.37500000  0.50000000  0.12500000  1
  C  C14  1  0.87500000  0.24980071  0.12500000  1
  C  C15  1  0.87500000  0.75019929  0.12500000  1
  Ti  Ti16  1  0.49785094  0.50000000  0.50158248  1
  Ti  Ti17  1  0.25214906  0.50000000  0.74841752  1
  Zr  Zr18  1  0.49956058  -0.00000000  0.50105232  1
  Zr  Zr19  1  0.00118473  0.25329943  0.50185666  1
  Zr  Zr20  1  0.74881527  0.25329943  0.74814334  1
  Zr  Zr21  1  0.49876285  0.25088191  0.99840294  1
  Zr  Zr22  1  0.25043942  -0.00000000  0.74894768  1
  Zr  Zr23  1  0.00017358  -0.00000000  0.99877242  1
  Zr  Zr24  1  0.74982642  -0.00000000  0.25122758  1
  Zr  Zr25  1  0.00118473  0.74670057  0.50185666  1
  Zr  Zr26  1  0.74881527  0.74670057  0.74814334  1
  Zr  Zr27  1  0.49876285  0.74911809  0.99840294  1
  Zr  Zr28  1  0.00020122  0.50000000  0.99809099  1
  Zr  Zr29  1  0.74979878  0.50000000  0.25190901  1
  Zr  Zr30  1  0.25123715  0.25088191  0.25159706  1
  Zr  Zr31  1  0.25123715  0.74911809  0.25159706  1
