data_TiC.cif_1x1x5_1_substitution_draw_0_5

_audit_creation_date               2016-10-10
_audit_creation_method             'generated by MedeA 2.21.3.6803'

_chemical_formula_sum              'C5CrHfMnNiTi'

_symmetry_space_group_name_H-M     'P1'
_symmetry_Int_Tables_number        1

_cell_length_a                     4.33144
_cell_length_b                     4.33144
_cell_length_c                     21.65719
_cell_angle_alpha                  90.00
_cell_angle_beta                   90.00
_cell_angle_gamma                  90.00
_cell_volume                       406.32
_cell_formula_units_Z              4

loop_
_atom_site_label
_atom_site_symmetry_multiplicity
_atom_site_Wyckoff_symbol
_atom_site_fract_x
_atom_site_fract_y
_atom_site_fract_z
_atom_site_occupancy
Ni1      1 a   0.00000   0.00000   0.00000 1.0
Hf2      1 a   0.00000   0.50000   0.10000 1.0
Hf3      1 a   0.50000   0.00000   0.10000 1.0
Ni3      1 a   0.50000   0.50000   0.00000 1.0
C1       1 a   0.00000   0.00000   0.10000 1.0
C2       1 a   0.00000   0.50000   0.00000 1.0
C3       1 a   0.50000   0.00000   0.00000 1.0
C4       1 a   0.50000   0.50000   0.10000 1.0
Ti5      1 a   0.00000   0.00000   0.20000 1.0
Cr1      1 a   0.00000   0.50000   0.30000 1.0
Hf4      1 a   0.50000   0.00000   0.30000 1.0
Mn4      1 a   0.50000   0.50000   0.20000 1.0
C5       1 a   0.00000   0.00000   0.30000 1.0
C6       1 a   0.00000   0.50000   0.20000 1.0
C7       1 a   0.50000   0.00000   0.20000 1.0
C8       1 a   0.50000   0.50000   0.30000 1.0
Ni2      1 a   0.00000   0.00000   0.40000 1.0
Ti10     1 a   0.00000   0.50000   0.50000 1.0
Cr4      1 a   0.50000   0.00000   0.50000 1.0
Mn1      1 a   0.50000   0.50000   0.40000 1.0
C9       1 a   0.00000   0.00000   0.50000 1.0
C10      1 a   0.00000   0.50000   0.40000 1.0
C11      1 a   0.50000   0.00000   0.40000 1.0
C12      1 a   0.50000   0.50000   0.50000 1.0
Ti13     1 a   0.00000   0.00000   0.60000 1.0
Ni4      1 a   0.00000   0.50000   0.70000 1.0
Ti15     1 a   0.50000   0.00000   0.70000 1.0
Mn3      1 a   0.50000   0.50000   0.60000 1.0
C13      1 a   0.00000   0.00000   0.70000 1.0
C14      1 a   0.00000   0.50000   0.60000 1.0
C15      1 a   0.50000   0.00000   0.60000 1.0
C16      1 a   0.50000   0.50000   0.70000 1.0
Mn2      1 a   0.00000   0.00000   0.80000 1.0
Hf1      1 a   0.00000   0.50000   0.90000 1.0
Cr2      1 a   0.50000   0.00000   0.90000 1.0
Cr3      1 a   0.50000   0.50000   0.80000 1.0
C17      1 a   0.00000   0.00000   0.90000 1.0
C18      1 a   0.00000   0.50000   0.80000 1.0
C19      1 a   0.50000   0.00000   0.80000 1.0
C20      1 a   0.50000   0.50000   0.90000 1.0
