# generated using pymatgen
data_ZrTaTiNbC4
_symmetry_space_group_name_H-M   'P 1'
_cell_length_a   6.39001450
_cell_length_b   6.38700554
_cell_length_c   9.05626678
_cell_angle_alpha   90.01730923
_cell_angle_beta   90.02717520
_cell_angle_gamma   89.97550480
_symmetry_Int_Tables_number   1
_chemical_formula_structural   ZrTaTiNbC4
_chemical_formula_sum   'Zr4 Ta4 Ti4 Nb4 C16'
_cell_volume   369.61384945
_cell_formula_units_Z   4
loop_
 _symmetry_equiv_pos_site_id
 _symmetry_equiv_pos_as_xyz
  1  'x, y, z'
loop_
 _atom_site_type_symbol
 _atom_site_label
 _atom_site_symmetry_multiplicity
 _atom_site_fract_x
 _atom_site_fract_y
 _atom_site_fract_z
 _atom_site_occupancy
  Zr  Zr0  1  0.25135476  0.24599140  0.74760299  1
  Zr  Zr1  1  0.74703805  0.75346060  0.25243184  1
  Zr  Zr2  1  0.50014127  0.49796429  0.00128843  1
  Zr  Zr3  1  0.00099306  0.49683390  0.00283602  1
  Ta  Ta4  1  0.74958729  0.24206007  0.74494014  1
  Ta  Ta5  1  0.75006821  0.75303124  0.74560077  1
  Ta  Ta6  1  0.49866316  0.49973219  0.49975272  1
  Ta  Ta7  1  -0.00006598  0.00137372  0.00477818  1
  Ti  Ti8  1  0.49914576  0.00204421  0.49583252  1
  Ti  Ti9  1  0.74752136  0.25024240  0.25769889  1
  Ti  Ti10  1  0.25289087  0.24870116  0.25506293  1
  Ti  Ti11  1  0.49726294  0.00220024  0.00557735  1
  Nb  Nb12  1  0.25052993  0.75567116  0.74461123  1
  Nb  Nb13  1  0.00294933  0.00154483  0.49431246  1
  Nb  Nb14  1  0.00234723  0.49930388  0.49736866  1
  Nb  Nb15  1  0.25027945  0.75110148  0.25577609  1
  C  C16  1  0.74565531  0.75327253  0.50314424  1
  C  C17  1  0.74582053  0.24708780  0.49902896  1
  C  C18  1  0.25472132  0.75321704  0.49936759  1
  C  C19  1  0.25516833  0.24748367  0.49397222  1
  C  C20  1  0.49667827  0.49023152  0.25606071  1
  C  C21  1  0.49691601  0.01053777  0.25360734  1
  C  C22  1  0.74755555  0.76248705  0.99568418  1
  C  C23  1  0.74704617  0.23689607  0.99910590  1
  C  C24  1  0.00164450  0.48921086  0.25462596  1
  C  C25  1  0.00166325  0.00978760  0.24949627  1
  C  C26  1  0.25272595  0.76226156  1.00032640  1
  C  C27  1  0.25320843  0.23718209  0.00697138  1
  C  C28  1  0.50609943  0.50123615  0.74444278  1
  C  C29  1  0.50504759  0.99688508  0.74476760  1
  C  C30  1  0.99366600  0.50105631  0.74528537  1
  C  C31  1  0.99533299  0.99691944  0.74875097  1
