# generated using pymatgen
data_TaTiNbWC4
_symmetry_space_group_name_H-M   'P 1'
_cell_length_a   6.27576329
_cell_length_b   6.28274838
_cell_length_c   8.86608719
_cell_angle_alpha   90.01885867
_cell_angle_beta   90.00174661
_cell_angle_gamma   89.99766222
_symmetry_Int_Tables_number   1
_chemical_formula_structural   TaTiNbWC4
_chemical_formula_sum   'Ta4 Ti4 Nb4 W4 C16'
_cell_volume   349.58130132
_cell_formula_units_Z   4
loop_
 _symmetry_equiv_pos_site_id
 _symmetry_equiv_pos_as_xyz
  1  'x, y, z'
loop_
 _atom_site_type_symbol
 _atom_site_label
 _atom_site_symmetry_multiplicity
 _atom_site_fract_x
 _atom_site_fract_y
 _atom_site_fract_z
 _atom_site_occupancy
  Ta  Ta0  1  0.75310440  0.26085019  0.75516046  1
  Ta  Ta1  1  0.74212221  0.75558166  0.75819172  1
  Ta  Ta2  1  0.50322116  0.50018360  0.49258806  1
  Ta  Ta3  1  0.00512795  0.00818557  0.00109969  1
  Ti  Ti4  1  0.50434419  -0.00208243  0.49580595  1
  Ti  Ti5  1  0.74869471  0.25135325  0.24320112  1
  Ti  Ti6  1  0.25180618  0.23936210  0.25403739  1
  Ti  Ti7  1  0.49891100  0.00266575  0.00337623  1
  Nb  Nb8  1  0.24312556  0.73779919  0.75061786  1
  Nb  Nb9  1  0.99882192  -0.00171059  0.49839430  1
  Nb  Nb10  1  -0.00426340  0.50134634  0.49218539  1
  Nb  Nb11  1  0.25261637  0.74650745  0.24763539  1
  W  W12  1  0.26777647  0.23906859  0.74068163  1
  W  W13  1  0.74707276  0.76718627  0.23710164  1
  W  W14  1  0.48070090  0.49389942  0.01042094  1
  W  W15  1  0.01270328  0.50011269  0.01336945  1
  C  C16  1  0.74416131  0.75285343  0.49833427  1
  C  C17  1  0.74570982  0.24804997  0.49831452  1
  C  C18  1  0.25553512  0.75114007  0.49902697  1
  C  C19  1  0.25391771  0.24833016  0.49871130  1
  C  C20  1  0.50558828  0.49505544  0.24756970  1
  C  C21  1  0.50180982  0.00427778  0.24846797  1
  C  C22  1  0.74717178  0.74789618  0.00112898  1
  C  C23  1  0.74778708  0.25523024  0.00183021  1
  C  C24  1  0.99433577  0.49640014  0.24773706  1
  C  C25  1  0.99871818  0.00314683  0.24800373  1
  C  C26  1  0.25266010  0.75098908  -0.00073953  1
  C  C27  1  0.25074509  0.24972241  -0.00135075  1
  C  C28  1  0.49891970  0.49738050  0.75452305  1
  C  C29  1  0.50013926  0.00222126  0.75376520  1
  C  C30  1  0.99870754  0.49689310  0.75571852  1
  C  C31  1  0.99754294  0.00275728  0.75283908  1
