# generated using pymatgen
data_YTaTiNbC4
_symmetry_space_group_name_H-M   'P 1'
_cell_length_a   6.45564031
_cell_length_b   6.49099864
_cell_length_c   9.20449429
_cell_angle_alpha   90.26680028
_cell_angle_beta   90.04881168
_cell_angle_gamma   89.97987048
_symmetry_Int_Tables_number   1
_chemical_formula_structural   YTaTiNbC4
_chemical_formula_sum   'Y4 Ta4 Ti4 Nb4 C16'
_cell_volume   385.69666442
_cell_formula_units_Z   4
loop_
 _symmetry_equiv_pos_site_id
 _symmetry_equiv_pos_as_xyz
  1  'x, y, z'
loop_
 _atom_site_type_symbol
 _atom_site_label
 _atom_site_symmetry_multiplicity
 _atom_site_fract_x
 _atom_site_fract_y
 _atom_site_fract_z
 _atom_site_occupancy
  Y  Y0  1  0.25240950  0.24664474  0.74928433  1
  Y  Y1  1  0.74671575  0.75233594  0.25279388  1
  Y  Y2  1  0.50149955  0.49906299  0.00099805  1
  Y  Y3  1  0.00095544  0.49883388  0.00181146  1
  Ta  Ta4  1  0.75036396  0.23699577  0.73995783  1
  Ta  Ta5  1  0.74942125  0.75368801  0.74402140  1
  Ta  Ta6  1  0.49889103  0.49956383  0.49940355  1
  Ta  Ta7  1  -0.00077698  0.00153034  0.00563650  1
  Ti  Ti8  1  0.49614762  0.00273021  0.49331002  1
  Ti  Ti9  1  0.74771762  0.24859725  0.26171167  1
  Ti  Ti10  1  0.25275197  0.24925558  0.25539446  1
  Ti  Ti11  1  0.49588896  0.00253361  0.00893833  1
  Nb  Nb12  1  0.25194501  0.75901218  0.74168524  1
  Nb  Nb13  1  0.00454856  0.00298832  0.49299968  1
  Nb  Nb14  1  0.00294808  0.50098497  0.49844016  1
  Nb  Nb15  1  0.24843030  0.75418786  0.25890851  1
  C  C16  1  0.74501726  0.75319724  0.50562084  1
  C  C17  1  0.74656381  0.24642313  0.49900749  1
  C  C18  1  0.25305667  0.75457390  0.49892835  1
  C  C19  1  0.25373611  0.24574538  0.49183599  1
  C  C20  1  0.48958800  0.48575327  0.26371254  1
  C  C21  1  0.49133350  0.01291028  0.25615203  1
  C  C22  1  0.74818146  0.77552934  0.98761146  1
  C  C23  1  0.74843349  0.22565534  0.99638492  1
  C  C24  1  0.00764387  0.48526470  0.26247811  1
  C  C25  1  0.00512670  0.01148859  0.25372349  1
  C  C26  1  0.25362351  0.77277645  0.99930989  1
  C  C27  1  0.25355778  0.22459226  0.01659762  1
  C  C28  1  0.51212340  0.50543044  0.73734599  1
  C  C29  1  0.50916063  0.99203123  0.74152830  1
  C  C30  1  0.98944170  0.50503841  0.73884346  1
  C  C31  1  0.99300652  0.99386247  0.74630288  1
