# generated using pymatgen
data_TaTiNbZnC4
_symmetry_space_group_name_H-M   'P 1'
_cell_length_a   6.28072865
_cell_length_b   6.28624602
_cell_length_c   8.90494917
_cell_angle_alpha   89.90060156
_cell_angle_beta   89.95306176
_cell_angle_gamma   90.01316358
_symmetry_Int_Tables_number   1
_chemical_formula_structural   TaTiNbZnC4
_chemical_formula_sum   'Ta4 Ti4 Nb4 Zn4 C16'
_cell_volume   351.58637610
_cell_formula_units_Z   4
loop_
 _symmetry_equiv_pos_site_id
 _symmetry_equiv_pos_as_xyz
  1  'x, y, z'
loop_
 _atom_site_type_symbol
 _atom_site_label
 _atom_site_symmetry_multiplicity
 _atom_site_fract_x
 _atom_site_fract_y
 _atom_site_fract_z
 _atom_site_occupancy
  Ta  Ta0  1  0.74946841  0.25313589  0.75518849  1
  Ta  Ta1  1  0.74896982  0.74919830  0.75758760  1
  Ta  Ta2  1  0.49818978  0.49802070  0.49522545  1
  Ta  Ta3  1  -0.00062113  0.00191171  0.00455521  1
  Ti  Ti4  1  0.49875382  1.00341534  0.49303731  1
  Ti  Ti5  1  0.74787501  0.25544199  0.24175922  1
  Ti  Ti6  1  0.25369761  0.25043214  0.24007407  1
  Ti  Ti7  1  0.49892847  0.00330815  0.00470377  1
  Nb  Nb8  1  0.25217371  0.74734144  0.75668535  1
  Nb  Nb9  1  0.00265748  1.00150521  0.49529732  1
  Nb  Nb10  1  0.00109924  0.49863720  0.49377785  1
  Nb  Nb11  1  0.24975375  0.74569350  0.24302097  1
  Zn  Zn12  1  0.25414241  0.25426991  0.75904941  1
  Zn  Zn13  1  0.74325547  0.75164614  0.24523832  1
  Zn  Zn14  1  0.50231328  0.49780352  0.00465310  1
  Zn  Zn15  1  0.99761342  0.49836783  0.00485248  1
  C  C16  1  0.74571029  0.75268324  0.50081293  1
  C  C17  1  0.74677241  0.24777974  0.49894243  1
  C  C18  1  0.25463289  0.75172183  0.49905519  1
  C  C19  1  0.25424110  0.24741042  0.49667614  1
  C  C20  1  0.49917341  0.49186822  0.25117894  1
  C  C21  1  0.49965957  0.00524586  0.25198444  1
  C  C22  1  0.74609447  0.75625017  1.00013755  1
  C  C23  1  0.74655928  0.24509940  1.00196403  1
  C  C24  1  -0.00049761  0.49155532  0.24931548  1
  C  C25  1  -0.00097306  0.00453052  0.25027565  1
  C  C26  1  0.25292510  0.75313865  0.99993731  1
  C  C27  1  0.25363153  0.24070646  0.00505836  1
  C  C28  1  0.50263510  0.49975707  0.74730732  1
  C  C29  1  0.50194709  1.00230276  0.74970267  1
  C  C30  1  0.99921232  0.50037397  0.75131909  1
  C  C31  1  0.99831556  1.00131243  0.75056323  1
