# generated using pymatgen
data_TaTiNbReC4
_symmetry_space_group_name_H-M   'P 1'
_cell_length_a   6.22156787
_cell_length_b   6.23024801
_cell_length_c   8.91685037
_cell_angle_alpha   89.84950599
_cell_angle_beta   90.02326591
_cell_angle_gamma   90.08441352
_symmetry_Int_Tables_number   1
_chemical_formula_structural   TaTiNbReC4
_chemical_formula_sum   'Ta4 Ti4 Nb4 Re4 C16'
_cell_volume   345.63256373
_cell_formula_units_Z   4
loop_
 _symmetry_equiv_pos_site_id
 _symmetry_equiv_pos_as_xyz
  1  'x, y, z'
loop_
 _atom_site_type_symbol
 _atom_site_label
 _atom_site_symmetry_multiplicity
 _atom_site_fract_x
 _atom_site_fract_y
 _atom_site_fract_z
 _atom_site_occupancy
  Ta  Ta0  1  0.74993412  0.25613607  0.75118691  1
  Ta  Ta1  1  0.74762580  0.74771644  0.76040624  1
  Ta  Ta2  1  0.50415821  0.50287561  0.49448448  1
  Ta  Ta3  1  0.00970519  0.01116199  -0.00046178  1
  Ti  Ti4  1  0.50217260  -0.00475070  0.49972679  1
  Ti  Ti5  1  0.75027690  0.24096456  0.24865633  1
  Ti  Ti6  1  0.25371614  0.24534277  0.25208137  1
  Ti  Ti7  1  0.49893550  0.02025674  1.00037573  1
  Nb  Nb8  1  0.25058551  0.73605441  0.75472488  1
  Nb  Nb9  1  -0.00340316  -0.00549771  0.49967368  1
  Nb  Nb10  1  0.99861954  0.50234092  0.49258624  1
  Nb  Nb11  1  0.25167983  0.75426567  0.24580575  1
  Re  Re12  1  0.25656321  0.24001768  0.72836489  1
  Re  Re13  1  0.73967881  0.76238967  0.23094119  1
  Re  Re14  1  0.48664817  0.50089854  0.02051561  1
  Re  Re15  1  -0.00028332  0.49530455  0.02248738  1
  C  C16  1  0.74503765  0.75135801  0.49616960  1
  C  C17  1  0.74576460  0.24782820  0.49876975  1
  C  C18  1  0.25489302  0.75003753  0.49961715  1
  C  C19  1  0.25447564  0.24612262  0.49831020  1
  C  C20  1  0.50527707  0.49818739  0.24791310  1
  C  C21  1  0.50564271  0.00321193  0.24656444  1
  C  C22  1  0.74650335  0.74656422  1.00148406  1
  C  C23  1  0.74869126  0.25843547  0.00314626  1
  C  C24  1  0.99518186  0.49580036  0.24815670  1
  C  C25  1  0.99518539  1.00128076  0.24640031  1
  C  C26  1  0.25176467  0.74767638  0.00052504  1
  C  C27  1  0.25332152  0.26067037  0.99793663  1
  C  C28  1  0.49810044  0.49227151  0.75339215  1
  C  C29  1  0.49845193  1.00288676  0.75168131  1
  C  C30  1  0.00377382  0.49000518  0.75560639  1
  C  C31  1  1.00263609  1.00294737  0.75216398  1
