# generated using pymatgen
data_TaTiNbRhC4
_symmetry_space_group_name_H-M   'P 1'
_cell_length_a   6.29329336
_cell_length_b   6.25458689
_cell_length_c   8.81030832
_cell_angle_alpha   88.90223679
_cell_angle_beta   89.90909807
_cell_angle_gamma   90.20549975
_symmetry_Int_Tables_number   1
_chemical_formula_structural   TaTiNbRhC4
_chemical_formula_sum   'Ta4 Ti4 Nb4 Rh4 C16'
_cell_volume   346.72456167
_cell_formula_units_Z   4
loop_
 _symmetry_equiv_pos_site_id
 _symmetry_equiv_pos_as_xyz
  1  'x, y, z'
loop_
 _atom_site_type_symbol
 _atom_site_label
 _atom_site_symmetry_multiplicity
 _atom_site_fract_x
 _atom_site_fract_y
 _atom_site_fract_z
 _atom_site_occupancy
  Ta  Ta0  1  0.75196190  0.25602393  0.75661311  1
  Ta  Ta1  1  0.74361209  0.74848025  0.76286135  1
  Ta  Ta2  1  0.49603326  0.49635319  0.49570847  1
  Ta  Ta3  1  0.00024604  0.00553772  0.00578580  1
  Ti  Ti4  1  0.50520833  0.99793973  0.49474913  1
  Ti  Ti5  1  0.74743117  0.25820320  0.24071597  1
  Ti  Ti6  1  0.25434515  0.25226086  0.24190331  1
  Ti  Ti7  1  0.49780461  0.00732441  0.00439157  1
  Nb  Nb8  1  0.24700546  0.73654690  0.75828090  1
  Nb  Nb9  1  0.00455058  0.00562678  0.49588107  1
  Nb  Nb10  1  0.99413988  0.50508689  0.49019867  1
  Nb  Nb11  1  0.25427996  0.74671733  0.24231565  1
  Rh  Rh12  1  0.25606508  0.24001309  0.75040074  1
  Rh  Rh13  1  0.74544135  0.75563606  0.24487689  1
  Rh  Rh14  1  0.49713315  0.49469775  0.00396907  1
  Rh  Rh15  1  1.00316130  0.49682232  0.00509672  1
  C  C16  1  0.74510679  0.75429649  0.49864009  1
  C  C17  1  0.74659324  0.25003871  0.49866531  1
  C  C18  1  0.25422727  0.75214636  0.49989953  1
  C  C19  1  0.25338720  0.24891331  0.49791136  1
  C  C20  1  0.50351782  0.49746361  0.24779777  1
  C  C21  1  0.50181419  0.00664820  0.24903228  1
  C  C22  1  0.74501602  0.74835783  0.00693197  1
  C  C23  1  0.74853115  0.25038252  1.00218195  1
  C  C24  1  0.99710646  0.49760760  0.24446329  1
  C  C25  1  -0.00089657  0.00597175  0.24971756  1
  C  C26  1  0.25196510  0.74761056  0.00035681  1
  C  C27  1  0.25403791  0.25072146  0.99703934  1
  C  C28  1  0.50034389  0.49430223  0.75360812  1
  C  C29  1  0.50098759  0.99844146  0.75119955  1
  C  C30  1  0.99995457  0.49505430  0.75641996  1
  C  C31  1  1.00019321  0.99828414  0.75265334  1
