# generated using pymatgen
data_ScTaTiNbC4
_symmetry_space_group_name_H-M   'P 1'
_cell_length_a   6.35274678
_cell_length_b   6.36262783
_cell_length_c   8.99830345
_cell_angle_alpha   90.15333072
_cell_angle_beta   90.00797262
_cell_angle_gamma   90.03127455
_symmetry_Int_Tables_number   1
_chemical_formula_structural   ScTaTiNbC4
_chemical_formula_sum   'Sc4 Ta4 Ti4 Nb4 C16'
_cell_volume   363.71153635
_cell_formula_units_Z   4
loop_
 _symmetry_equiv_pos_site_id
 _symmetry_equiv_pos_as_xyz
  1  'x, y, z'
loop_
 _atom_site_type_symbol
 _atom_site_label
 _atom_site_symmetry_multiplicity
 _atom_site_fract_x
 _atom_site_fract_y
 _atom_site_fract_z
 _atom_site_occupancy
  Sc  Sc0  1  0.25204953  0.24948836  0.75141453  1
  Sc  Sc1  1  0.74629492  0.75050371  0.25056840  1
  Sc  Sc2  1  0.50107471  0.49865249  0.00142267  1
  Sc  Sc3  1  1.00016119  0.49713946  0.00214380  1
  Ta  Ta4  1  0.74927665  0.24531197  0.74901311  1
  Ta  Ta5  1  0.74976942  0.75096262  0.74887375  1
  Ta  Ta6  1  0.50015210  0.49823777  0.49902881  1
  Ta  Ta7  1  -0.00079329  0.00055230  0.00534271  1
  Ti  Ti8  1  0.49662246  0.00375365  0.49408599  1
  Ti  Ti9  1  0.74754782  0.25194086  0.25129699  1
  Ti  Ti10  1  0.25407722  0.25134301  0.24782366  1
  Ti  Ti11  1  0.49915218  0.00208487  0.00634833  1
  Nb  Nb12  1  0.25204248  0.75594227  0.74986433  1
  Nb  Nb13  1  1.00164434  0.00321591  0.49366962  1
  Nb  Nb14  1  0.00349481  0.49924992  0.49753800  1
  Nb  Nb15  1  0.25046258  0.74822489  0.25042194  1
  C  C16  1  0.74558282  0.75320251  0.50204804  1
  C  C17  1  0.74586953  0.24762217  0.49882986  1
  C  C18  1  0.25444404  0.75309416  0.49934613  1
  C  C19  1  0.25487549  0.24784013  0.49479531  1
  C  C20  1  0.49660918  0.49026035  0.25556291  1
  C  C21  1  0.49653200  0.00854132  0.25339860  1
  C  C22  1  0.74680293  0.76228671  0.99589011  1
  C  C23  1  0.74690504  0.23773671  0.00089395  1
  C  C24  1  0.00144924  0.48831008  0.25405190  1
  C  C25  1  0.00034333  0.00799676  0.25017713  1
  C  C26  1  0.25296121  0.76042324  0.00095702  1
  C  C27  1  0.25344726  0.23733697  0.00840697  1
  C  C28  1  0.50617085  0.50057508  0.74520101  1
  C  C29  1  0.50457596  0.99852285  0.74656759  1
  C  C30  1  0.99462578  0.50077181  0.74666968  1
  C  C31  1  0.99612972  0.99897669  0.74956521  1
