# generated using pymatgen
data_ZrTaTiNbC4
_symmetry_space_group_name_H-M   'P 1'
_cell_length_a   6.39012091
_cell_length_b   6.38719661
_cell_length_c   9.05622160
_cell_angle_alpha   90.01913269
_cell_angle_beta   90.02482949
_cell_angle_gamma   89.97491808
_symmetry_Int_Tables_number   1
_chemical_formula_structural   ZrTaTiNbC4
_chemical_formula_sum   'Zr4 Ta4 Ti4 Nb4 C16'
_cell_volume   369.62921937
_cell_formula_units_Z   4
loop_
 _symmetry_equiv_pos_site_id
 _symmetry_equiv_pos_as_xyz
  1  'x, y, z'
loop_
 _atom_site_type_symbol
 _atom_site_label
 _atom_site_symmetry_multiplicity
 _atom_site_fract_x
 _atom_site_fract_y
 _atom_site_fract_z
 _atom_site_occupancy
  Zr  Zr0  1  0.25144305  0.24626527  0.74754569  1
  Zr  Zr1  1  0.74713605  0.75328690  0.25261221  1
  Zr  Zr2  1  0.50038889  0.49797260  0.00132028  1
  Zr  Zr3  1  0.00142319  0.49729495  0.00273314  1
  Ta  Ta4  1  0.74960373  0.24196314  0.74499928  1
  Ta  Ta5  1  0.75006614  0.75317957  0.74557766  1
  Ta  Ta6  1  0.49944476  0.50006477  0.49984467  1
  Ta  Ta7  1  -0.00031722  0.00158539  0.00483228  1
  Ti  Ti8  1  0.49798722  0.00290277  0.49532034  1
  Ti  Ti9  1  0.74750152  0.25035713  0.25765855  1
  Ti  Ti10  1  0.25244163  0.24933107  0.25514778  1
  Ti  Ti11  1  0.49676675  0.00220325  0.00591237  1
  Nb  Nb12  1  0.25085504  0.75620895  0.74441989  1
  Nb  Nb13  1  0.00189871  0.00194464  0.49432049  1
  Nb  Nb14  1  0.00284328  0.49946495  0.49766436  1
  Nb  Nb15  1  0.25024881  0.75142362  0.25594266  1
  C  C16  1  0.74578449  0.75336752  0.50314142  1
  C  C17  1  0.74591817  0.24735159  0.49894073  1
  C  C18  1  0.25473356  0.75354811  0.49936268  1
  C  C19  1  0.25514837  0.24759869  0.49389836  1
  C  C20  1  0.49663341  0.49045413  0.25615108  1
  C  C21  1  0.49679209  0.01064624  0.25349580  1
  C  C22  1  0.74755484  0.76254141  0.99578689  1
  C  C23  1  0.74704591  0.23691824  0.99905150  1
  C  C24  1  0.00175619  0.48946754  0.25463294  1
  C  C25  1  0.00145509  0.00995803  0.24951279  1
  C  C26  1  0.25281302  0.76236362  1.00031500  1
  C  C27  1  0.25313495  0.23728887  0.00690779  1
  C  C28  1  0.50624232  0.50148931  0.74449362  1
  C  C29  1  0.50511893  0.99718039  0.74452704  1
  C  C30  1  0.99383834  0.50125705  0.74535535  1
  C  C31  1  0.99534758  0.99707735  0.74875296  1
