# generated using pymatgen
data_TaTiNbRuC4
_symmetry_space_group_name_H-M   'P 1'
_cell_length_a   6.28336262
_cell_length_b   6.25455643
_cell_length_c   8.79179212
_cell_angle_alpha   89.19856475
_cell_angle_beta   89.88681739
_cell_angle_gamma   90.19666941
_symmetry_Int_Tables_number   1
_chemical_formula_structural   TaTiNbRuC4
_chemical_formula_sum   'Ta4 Ti4 Nb4 Ru4 C16'
_cell_volume   345.47777581
_cell_formula_units_Z   4
loop_
 _symmetry_equiv_pos_site_id
 _symmetry_equiv_pos_as_xyz
  1  'x, y, z'
loop_
 _atom_site_type_symbol
 _atom_site_label
 _atom_site_symmetry_multiplicity
 _atom_site_fract_x
 _atom_site_fract_y
 _atom_site_fract_z
 _atom_site_occupancy
  Ta  Ta0  1  0.74900432  0.25585902  0.75754769  1
  Ta  Ta1  1  0.74634775  0.74444664  0.76525874  1
  Ta  Ta2  1  0.50258286  0.50160631  0.49514084  1
  Ta  Ta3  1  1.00706671  0.01451748  0.00307680  1
  Ti  Ti4  1  0.50162234  1.00059085  0.49789274  1
  Ti  Ti5  1  0.74919907  0.25832270  0.24225645  1
  Ti  Ti6  1  0.25811009  0.24780843  0.24717874  1
  Ti  Ti7  1  0.49838007  0.00607755  0.00185789  1
  Nb  Nb8  1  0.24762523  0.73678140  0.75720217  1
  Nb  Nb9  1  -0.00166575  0.99802458  0.49697187  1
  Nb  Nb10  1  0.99777143  0.50020989  0.49161037  1
  Nb  Nb11  1  0.25107846  0.74542104  0.24290725  1
  Ru  Ru12  1  0.25934329  0.23649496  0.74400843  1
  Ru  Ru13  1  0.73774749  0.76679104  0.23561682  1
  Ru  Ru14  1  0.48182574  0.48306831  0.00564212  1
  Ru  Ru15  1  0.01346368  0.49878073  0.01386093  1
  C  C16  1  0.74528188  0.75267167  0.50142717  1
  C  C17  1  0.74630374  0.24869443  0.49800831  1
  C  C18  1  0.25469231  0.75041049  0.49933877  1
  C  C19  1  0.25484131  0.24848423  0.49660001  1
  C  C20  1  0.50417310  0.49765359  0.24485576  1
  C  C21  1  0.50336985  0.00455985  0.24871313  1
  C  C22  1  0.74793632  0.75265590  0.00878933  1
  C  C23  1  0.74716848  0.25432999  0.00219376  1
  C  C24  1  0.99808123  0.49597076  0.24248617  1
  C  C25  1  -0.00224457  0.00483489  0.24793192  1
  C  C26  1  0.25238103  0.75268224  -0.00004430  1
  C  C27  1  0.25632846  0.25691787  0.99728651  1
  C  C28  1  0.49778582  0.49295282  0.75350740  1
  C  C29  1  0.49932785  0.99950996  0.75159298  1
  C  C30  1  0.99830563  0.49358399  0.75563372  1
  C  C31  1  0.99837406  0.99947511  0.75261138  1
