# generated using pymatgen
data_TaTiNbPdC4
_symmetry_space_group_name_H-M   'P 1'
_cell_length_a   6.31229025
_cell_length_b   6.27859022
_cell_length_c   8.90050452
_cell_angle_alpha   89.34917542
_cell_angle_beta   89.93413483
_cell_angle_gamma   90.01985125
_symmetry_Int_Tables_number   1
_chemical_formula_structural   TaTiNbPdC4
_chemical_formula_sum   'Ta4 Ti4 Nb4 Pd4 C16'
_cell_volume   352.72430847
_cell_formula_units_Z   4
loop_
 _symmetry_equiv_pos_site_id
 _symmetry_equiv_pos_as_xyz
  1  'x, y, z'
loop_
 _atom_site_type_symbol
 _atom_site_label
 _atom_site_symmetry_multiplicity
 _atom_site_fract_x
 _atom_site_fract_y
 _atom_site_fract_z
 _atom_site_occupancy
  Ta  Ta0  1  0.75225891  0.25791355  0.75632272  1
  Ta  Ta1  1  0.74568390  0.75037559  0.76085418  1
  Ta  Ta2  1  0.49854758  0.49783527  0.49452524  1
  Ta  Ta3  1  0.00179166  0.00346658  0.00474312  1
  Ti  Ti4  1  0.49991905  0.00163427  0.49474764  1
  Ti  Ti5  1  0.74575160  0.25407122  0.24160324  1
  Ti  Ti6  1  0.25293039  0.25128370  0.24248595  1
  Ti  Ti7  1  0.49905096  0.00491136  0.00401809  1
  Nb  Nb8  1  0.24945106  0.73928462  0.75729303  1
  Nb  Nb9  1  0.00243665  1.00272947  0.49606811  1
  Nb  Nb10  1  -0.00254690  0.50242708  0.49267492  1
  Nb  Nb11  1  0.25309777  0.74533881  0.24259049  1
  Pd  Pd12  1  0.26041856  0.24381942  0.75331592  1
  Pd  Pd13  1  0.74355811  0.76311482  0.24441317  1
  Pd  Pd14  1  0.49587634  0.49586752  0.01002318  1
  Pd  Pd15  1  1.00087534  0.49130726  0.01019594  1
  C  C16  1  0.74574163  0.75274169  0.50090914  1
  C  C17  1  0.74661335  0.24878903  0.49813389  1
  C  C18  1  0.25440617  0.75112532  0.49880648  1
  C  C19  1  0.25412045  0.24752720  0.49512549  1
  C  C20  1  0.49819014  0.49124931  0.25145774  1
  C  C21  1  0.49983207  0.00596191  0.25097261  1
  C  C22  1  0.74233989  0.75932908  0.00161303  1
  C  C23  1  0.74688816  0.24501691  1.00071651  1
  C  C24  1  0.00211955  0.49074865  0.24891432  1
  C  C25  1  0.00194198  0.00653690  0.24940904  1
  C  C26  1  0.25312042  0.75513431  0.00008848  1
  C  C27  1  0.25355150  0.24495171  0.00115770  1
  C  C28  1  0.50467675  0.49859370  0.74633723  1
  C  C29  1  0.50213359  1.00030595  0.74940697  1
  C  C30  1  0.99729645  0.50028762  0.74980959  1
  C  C31  1  0.99674389  0.99732958  0.75141444  1
