# generated using pymatgen
data_TaTiNbTcC4
_symmetry_space_group_name_H-M   'P 1'
_cell_length_a   6.25284519
_cell_length_b   6.25410019
_cell_length_c   8.86951734
_cell_angle_alpha   89.98134733
_cell_angle_beta   89.98305647
_cell_angle_gamma   89.90383898
_symmetry_Int_Tables_number   1
_chemical_formula_structural   TaTiNbTcC4
_chemical_formula_sum   'Ta4 Ti4 Nb4 Tc4 C16'
_cell_volume   346.85011590
_cell_formula_units_Z   4
loop_
 _symmetry_equiv_pos_site_id
 _symmetry_equiv_pos_as_xyz
  1  'x, y, z'
loop_
 _atom_site_type_symbol
 _atom_site_label
 _atom_site_symmetry_multiplicity
 _atom_site_fract_x
 _atom_site_fract_y
 _atom_site_fract_z
 _atom_site_occupancy
  Ta  Ta0  1  0.75073297  0.25801800  0.75020511  1
  Ta  Ta1  1  0.74646355  0.75117594  0.75938537  1
  Ta  Ta2  1  0.50038272  0.50229638  0.49305802  1
  Ta  Ta3  1  0.01479245  0.02027328  0.99853025  1
  Ti  Ti4  1  0.50111429  0.99751578  0.49854413  1
  Ti  Ti5  1  0.74968906  0.23592877  0.25120375  1
  Ti  Ti6  1  0.25481171  0.24754155  0.24921683  1
  Ti  Ti7  1  0.49618023  0.02098181  0.99866305  1
  Nb  Nb8  1  0.24639023  0.72971883  0.75924906  1
  Nb  Nb9  1  0.00301257  0.99623869  0.49791943  1
  Nb  Nb10  1  -0.00062258  0.50350158  0.49095479  1
  Nb  Nb11  1  0.25206076  0.75532572  0.24073398  1
  Tc  Tc12  1  0.26327681  0.23398314  0.73796985  1
  Tc  Tc13  1  0.74233324  0.75629527  0.23121014  1
  Tc  Tc14  1  0.50790632  0.49808912  0.02178297  1
  Tc  Tc15  1  0.97693647  0.49807289  0.02176439  1
  C  C16  1  0.74519120  0.75252726  0.49876418  1
  C  C17  1  0.74748697  0.24760880  0.49867089  1
  C  C18  1  0.25533238  0.75134951  0.49927259  1
  C  C19  1  0.25496166  0.24845171  0.49864860  1
  C  C20  1  0.50416393  0.49356211  0.24899893  1
  C  C21  1  0.50523657  0.00135691  0.24649222  1
  C  C22  1  0.74352394  0.75393406  0.00187477  1
  C  C23  1  0.74805958  0.25329066  0.00218870  1
  C  C24  1  0.99567892  0.49499965  0.24696655  1
  C  C25  1  0.99727670  1.00126502  0.24623291  1
  C  C26  1  0.25106066  0.74278473  -0.00000992  1
  C  C27  1  0.25296829  0.26554537  1.00024740  1
  C  C28  1  0.49726424  0.49193491  0.75275862  1
  C  C29  1  0.49577071  1.00234617  0.75019108  1
  C  C30  1  0.99777582  0.49378026  0.75620754  1
  C  C31  1  1.00115853  1.00077992  0.75195209  1
