# generated using pymatgen
data_TaTiNbOsC4
_symmetry_space_group_name_H-M   'P 1'
_cell_length_a   6.27978480
_cell_length_b   6.28439557
_cell_length_c   8.77116683
_cell_angle_alpha   88.82012813
_cell_angle_beta   89.97737540
_cell_angle_gamma   89.10928078
_symmetry_Int_Tables_number   1
_chemical_formula_structural   TaTiNbOsC4
_chemical_formula_sum   'Ta4 Ti4 Nb4 Os4 C16'
_cell_volume   346.03583337
_cell_formula_units_Z   4
loop_
 _symmetry_equiv_pos_site_id
 _symmetry_equiv_pos_as_xyz
  1  'x, y, z'
loop_
 _atom_site_type_symbol
 _atom_site_label
 _atom_site_symmetry_multiplicity
 _atom_site_fract_x
 _atom_site_fract_y
 _atom_site_fract_z
 _atom_site_occupancy
  Ta  Ta0  1  0.74218317  0.25424841  0.75664615  1
  Ta  Ta1  1  0.75476124  0.74434705  0.76422808  1
  Ta  Ta2  1  0.50691127  0.50472547  0.49216902  1
  Ta  Ta3  1  0.00902738  0.01450700  0.00215866  1
  Ti  Ti4  1  0.50050678  0.00536137  0.49783100  1
  Ti  Ti5  1  0.74915883  0.26569278  0.23991885  1
  Ti  Ti6  1  0.25499733  0.24722692  0.24439882  1
  Ti  Ti7  1  0.51103408  0.99102267  0.00583077  1
  Nb  Nb8  1  0.25247890  0.73595639  0.75534414  1
  Nb  Nb9  1  0.99629025  0.99623549  0.49489056  1
  Nb  Nb10  1  0.00318397  0.49394299  0.49452754  1
  Nb  Nb11  1  0.25300050  0.74259391  0.24544590  1
  Os  Os12  1  0.24848337  0.22018617  0.73615200  1
  Os  Os13  1  0.74105394  0.78461966  0.25317688  1
  Os  Os14  1  0.46179520  0.46571579  0.00024905  1
  Os  Os15  1  -0.00067039  0.52910970  0.01232426  1
  C  C16  1  0.74806586  0.75155678  0.50052361  1
  C  C17  1  0.74648852  0.25053204  0.49729340  1
  C  C18  1  0.25511090  0.74966041  0.49946391  1
  C  C19  1  0.25653326  0.24783471  0.49631304  1
  C  C20  1  0.50342477  0.50073125  0.24174914  1
  C  C21  1  0.50284102  0.00541108  0.24982302  1
  C  C22  1  0.76125712  0.75443298  0.01280017  1
  C  C23  1  0.74387889  0.25973188  0.00114228  1
  C  C24  1  0.99487451  0.49943050  0.24413570  1
  C  C25  1  1.00060117  0.00997380  0.24738800  1
  C  C26  1  0.25954958  0.75035448  0.00085572  1
  C  C27  1  0.24803403  0.24573962  0.99436581  1
  C  C28  1  0.49859920  0.49320193  0.75375647  1
  C  C29  1  0.49910286  0.99797878  0.75253188  1
  C  C30  1  0.00103046  0.48903934  0.76006321  1
  C  C31  1  0.99689603  0.99900337  0.75127447  1
