# generated using pymatgen
data_TaTiNbPtC4
_symmetry_space_group_name_H-M   'P 1'
_cell_length_a   6.32330141
_cell_length_b   6.28179488
_cell_length_c   8.87723085
_cell_angle_alpha   89.16313776
_cell_angle_beta   90.03753007
_cell_angle_gamma   90.53048473
_symmetry_Int_Tables_number   1
_chemical_formula_structural   TaTiNbPtC4
_chemical_formula_sum   'Ta4 Ti4 Nb4 Pt4 C16'
_cell_volume   352.56577272
_cell_formula_units_Z   4
loop_
 _symmetry_equiv_pos_site_id
 _symmetry_equiv_pos_as_xyz
  1  'x, y, z'
loop_
 _atom_site_type_symbol
 _atom_site_label
 _atom_site_symmetry_multiplicity
 _atom_site_fract_x
 _atom_site_fract_y
 _atom_site_fract_z
 _atom_site_occupancy
  Ta  Ta0  1  0.74678293  0.26023062  0.75410555  1
  Ta  Ta1  1  0.74212177  0.75319300  0.76271330  1
  Ta  Ta2  1  0.50466924  0.50555748  0.49103321  1
  Ta  Ta3  1  0.00706327  0.00262371  0.99967710  1
  Ti  Ti4  1  0.49777127  1.00428617  0.49300688  1
  Ti  Ti5  1  0.75388624  0.25833209  0.24208225  1
  Ti  Ti6  1  0.25108561  0.24896207  0.24766500  1
  Ti  Ti7  1  0.49944957  1.00336447  0.00789724  1
  Nb  Nb8  1  0.24815585  0.73137111  0.75536237  1
  Nb  Nb9  1  0.99662251  -0.00336436  0.49933595  1
  Nb  Nb10  1  0.00257233  0.49509916  0.49547484  1
  Nb  Nb11  1  0.24362132  0.74616694  0.24458164  1
  Pt  Pt12  1  0.26859711  0.22332621  0.74074538  1
  Pt  Pt13  1  0.73695414  0.77956651  0.25162816  1
  Pt  Pt14  1  0.50298556  0.50005002  0.01560603  1
  Pt  Pt15  1  1.01611259  0.47882307  0.00352450  1
  C  C16  1  0.74570190  0.75448249  0.49848674  1
  C  C17  1  0.74757380  0.25076258  0.49753121  1
  C  C18  1  0.25265864  0.74995923  0.49950420  1
  C  C19  1  0.25516183  0.24722737  0.49744485  1
  C  C20  1  0.50238657  0.49907882  0.24804692  1
  C  C21  1  0.50032610  0.00761018  0.25081497  1
  C  C22  1  0.73000053  0.76599742  0.00750553  1
  C  C23  1  0.74793987  0.25234678  1.00074548  1
  C  C24  1  0.00768245  0.48630839  0.24414692  1
  C  C25  1  -0.00172143  0.00540725  0.24703214  1
  C  C26  1  0.25041088  0.74889762  0.00042138  1
  C  C27  1  0.25594946  0.25028959  0.99940268  1
  C  C28  1  0.49804431  0.49315452  0.74488875  1
  C  C29  1  0.50103703  0.99793712  0.74989631  1
  C  C30  1  0.99009571  0.50372088  0.75703011  1
  C  C31  1  0.99809590  0.99853253  0.75153627  1
