# generated using pymatgen
data_TaTiNbVC4
_symmetry_space_group_name_H-M   'P 1'
_cell_length_a   6.20531629
_cell_length_b   6.20900184
_cell_length_c   8.77509624
_cell_angle_alpha   89.97859453
_cell_angle_beta   89.97999174
_cell_angle_gamma   90.02844005
_symmetry_Int_Tables_number   1
_chemical_formula_structural   TaTiNbVC4
_chemical_formula_sum   'Ta4 Ti4 Nb4 V4 C16'
_cell_volume   338.09401989
_cell_formula_units_Z   4
loop_
 _symmetry_equiv_pos_site_id
 _symmetry_equiv_pos_as_xyz
  1  'x, y, z'
loop_
 _atom_site_type_symbol
 _atom_site_label
 _atom_site_symmetry_multiplicity
 _atom_site_fract_x
 _atom_site_fract_y
 _atom_site_fract_z
 _atom_site_occupancy
  Ta  Ta0  1  0.74774261  0.25120974  0.75698237  1
  Ta  Ta1  1  0.74855678  0.74380923  0.75815798  1
  Ta  Ta2  1  0.50012734  0.49838639  0.49466653  1
  Ta  Ta3  1  0.00468171  0.00664410  0.00183982  1
  Ti  Ti4  1  0.50236884  0.00084721  0.49620648  1
  Ti  Ti5  1  0.74747138  0.24678381  0.24281512  1
  Ti  Ti6  1  0.25314024  0.24828082  0.24811356  1
  Ti  Ti7  1  0.50091278  0.00135924  0.00243556  1
  Nb  Nb8  1  0.25018587  0.74694419  0.75478529  1
  Nb  Nb9  1  -0.00009161  0.00087047  0.49686383  1
  Nb  Nb10  1  -0.00164557  0.49906481  0.49192192  1
  Nb  Nb11  1  0.25343918  0.75110921  0.24473206  1
  V  V12  1  0.25337908  0.25929816  0.76300068  1
  V  V13  1  0.74929047  0.74277577  0.23579152  1
  V  V14  1  0.48832920  0.49622378  0.00543806  1
  V  V15  1  -0.00029812  0.50348083  0.00970088  1
  C  C16  1  0.74533568  0.75062536  0.49575775  1
  C  C17  1  0.74568059  0.24883028  0.49727505  1
  C  C18  1  0.25468865  0.75095583  0.49981783  1
  C  C19  1  0.25409890  0.24919269  0.50127252  1
  C  C20  1  0.50358826  0.49848067  0.24301236  1
  C  C21  1  0.50695937  0.99983667  0.24688443  1
  C  C22  1  0.74884700  0.74229490  0.00427054  1
  C  C23  1  0.74744223  0.25660954  0.00153068  1
  C  C24  1  0.99462551  0.49911994  0.24241942  1
  C  C25  1  0.99496699  0.00122069  0.24670191  1
  C  C26  1  0.25190052  0.74533073  0.00054616  1
  C  C27  1  0.25274349  0.26007244  0.99955204  1
  C  C28  1  0.49844193  0.49570571  0.75544515  1
  C  C29  1  0.49665601  0.00552117  0.75270074  1
  C  C30  1  0.00208971  0.49438015  0.75723456  1
  C  C31  1  0.00273591  0.00560852  0.75290258  1
