# generated using pymatgen
data_TaTiNbNiC4
_symmetry_space_group_name_H-M   'P 1'
_cell_length_a   6.20465600
_cell_length_b   6.19136536
_cell_length_c   8.77001725
_cell_angle_alpha   89.26411553
_cell_angle_beta   89.88248255
_cell_angle_gamma   89.78507372
_symmetry_Int_Tables_number   1
_chemical_formula_structural   TaTiNbNiC4
_chemical_formula_sum   'Ta4 Ti4 Nb4 Ni4 C16'
_cell_volume   336.87194260
_cell_formula_units_Z   4
loop_
 _symmetry_equiv_pos_site_id
 _symmetry_equiv_pos_as_xyz
  1  'x, y, z'
loop_
 _atom_site_type_symbol
 _atom_site_label
 _atom_site_symmetry_multiplicity
 _atom_site_fract_x
 _atom_site_fract_y
 _atom_site_fract_z
 _atom_site_occupancy
  Ta  Ta0  1  0.74409311  0.25441318  0.75990164  1
  Ta  Ta1  1  0.74835681  0.74607485  0.76187721  1
  Ta  Ta2  1  0.49887634  0.49681396  0.49552598  1
  Ta  Ta3  1  -0.00339097  0.00148070  0.00563344  1
  Ti  Ti4  1  0.50069320  1.00099053  0.49063110  1
  Ti  Ti5  1  0.75026542  0.26453433  0.23863176  1
  Ti  Ti6  1  0.25369287  0.25683995  0.23665771  1
  Ti  Ti7  1  0.50138798  0.00072852  0.00747806  1
  Nb  Nb8  1  0.25140757  0.74250765  0.75991110  1
  Nb  Nb9  1  1.00213411  1.00120131  0.49453410  1
  Nb  Nb10  1  0.00184301  0.49659660  0.49611651  1
  Nb  Nb11  1  0.25292973  0.74252814  0.23934049  1
  Ni  Ni12  1  0.25076505  0.24997011  0.76884178  1
  Ni  Ni13  1  0.74832752  0.74819554  0.24486975  1
  Ni  Ni14  1  0.49888654  0.49804753  0.00133588  1
  Ni  Ni15  1  1.00327106  0.49658444  0.00109820  1
  C  C16  1  0.74546568  0.75053176  0.49531106  1
  C  C17  1  0.74669352  0.24888425  0.49847810  1
  C  C18  1  0.25398032  0.74998472  0.49912018  1
  C  C19  1  0.25423985  0.24729077  0.49562495  1
  C  C20  1  0.50520635  0.49904512  0.24350514  1
  C  C21  1  0.50593662  0.00342808  0.24846003  1
  C  C22  1  0.74514755  0.74200577  0.00784672  1
  C  C23  1  0.74607667  0.25581488  1.00210666  1
  C  C24  1  0.99436210  0.50051061  0.24102493  1
  C  C25  1  0.99817989  0.00595972  0.24821179  1
  C  C26  1  0.25451455  0.74522318  -0.00014985  1
  C  C27  1  0.25269244  0.25830597  0.99578404  1
  C  C28  1  0.49657535  0.49468994  0.75660923  1
  C  C29  1  0.49637631  1.00317016  0.75243261  1
  C  C30  1  0.00229669  0.49326199  0.75876111  1
  C  C31  1  0.99942822  1.00254979  0.75340558  1
