# generated using pymatgen
data_TaTiMnNbC4
_symmetry_space_group_name_H-M   'P 1'
_cell_length_a   6.22053206
_cell_length_b   6.22555523
_cell_length_c   8.74983350
_cell_angle_alpha   89.64748420
_cell_angle_beta   89.96627161
_cell_angle_gamma   90.49700642
_symmetry_Int_Tables_number   1
_chemical_formula_structural   TaTiMnNbC4
_chemical_formula_sum   'Ta4 Ti4 Mn4 Nb4 C16'
_cell_volume   338.82914769
_cell_formula_units_Z   4
loop_
 _symmetry_equiv_pos_site_id
 _symmetry_equiv_pos_as_xyz
  1  'x, y, z'
loop_
 _atom_site_type_symbol
 _atom_site_label
 _atom_site_symmetry_multiplicity
 _atom_site_fract_x
 _atom_site_fract_y
 _atom_site_fract_z
 _atom_site_occupancy
  Ta  Ta0  1  0.74824537  0.25555386  0.75798922  1
  Ta  Ta1  1  0.74566544  0.74592782  0.76123711  1
  Ta  Ta2  1  0.50233362  0.50090480  0.49480318  1
  Ta  Ta3  1  -0.00440932  -0.00307679  0.00186606  1
  Ti  Ti4  1  0.50134687  0.00065378  0.49823366  1
  Ti  Ti5  1  0.75641006  0.25764421  0.24032062  1
  Ti  Ti6  1  0.25738703  0.24354968  0.25329422  1
  Ti  Ti7  1  0.49182257  0.01287715  0.00123862  1
  Mn  Mn8  1  0.25601623  0.25166806  0.75212816  1
  Mn  Mn9  1  0.72147119  0.77040743  0.23087574  1
  Mn  Mn10  1  0.50169458  0.50699571  0.01274839  1
  Mn  Mn11  1  0.04923069  0.46968258  0.00073172  1
  Nb  Nb12  1  0.25030523  0.74435187  0.75423166  1
  Nb  Nb13  1  0.99499929  -0.00154183  0.49821995  1
  Nb  Nb14  1  0.99797147  0.49877512  0.49373929  1
  Nb  Nb15  1  0.23993714  0.74496593  0.24343602  1
  C  C16  1  0.74424406  0.75050526  0.49885494  1
  C  C17  1  0.74590499  0.24979027  0.49621597  1
  C  C18  1  0.25293944  0.75076532  0.49839223  1
  C  C19  1  0.25398253  0.24902793  0.50730673  1
  C  C20  1  0.51172396  0.50600653  0.23992584  1
  C  C21  1  0.50745455  -0.00046845  0.24821205  1
  C  C22  1  0.72391967  0.75746520  0.01076077  1
  C  C23  1  0.75018953  0.26576757  0.00163791  1
  C  C24  1  1.01003759  0.48248092  0.23529313  1
  C  C25  1  0.98746970  -0.00616051  0.24648081  1
  C  C26  1  0.24779983  0.73783926  -0.00046836  1
  C  C27  1  0.25661545  0.26008562  0.99721518  1
  C  C28  1  0.49738178  0.49349421  0.75620515  1
  C  C29  1  0.49255299  1.00939714  0.75346262  1
  C  C30  1  0.00779515  0.48903978  0.76197447  1
  C  C31  1  1.00055340  1.00216750  0.75325905  1
