# generated using pymatgen
data_TaTiNbFeC4
_symmetry_space_group_name_H-M   'P 1'
_cell_length_a   6.19578433
_cell_length_b   6.18116668
_cell_length_c   8.70907832
_cell_angle_alpha   89.42586330
_cell_angle_beta   89.83152729
_cell_angle_gamma   90.18204850
_symmetry_Int_Tables_number   1
_chemical_formula_structural   TaTiNbFeC4
_chemical_formula_sum   'Ta4 Ti4 Nb4 Fe4 C16'
_cell_volume   333.51319997
_cell_formula_units_Z   4
loop_
 _symmetry_equiv_pos_site_id
 _symmetry_equiv_pos_as_xyz
  1  'x, y, z'
loop_
 _atom_site_type_symbol
 _atom_site_label
 _atom_site_symmetry_multiplicity
 _atom_site_fract_x
 _atom_site_fract_y
 _atom_site_fract_z
 _atom_site_occupancy
  Ta  Ta0  1  0.74851028  0.25365202  0.75819768  1
  Ta  Ta1  1  0.74593150  0.74196753  0.76532723  1
  Ta  Ta2  1  0.49801288  0.49652028  0.49394468  1
  Ta  Ta3  1  1.00360284  0.00885543  0.00238981  1
  Ti  Ti4  1  0.50350424  0.99821634  0.49440919  1
  Ti  Ti5  1  0.74882345  0.25560416  0.24008423  1
  Ti  Ti6  1  0.25213214  0.25286995  0.24231774  1
  Ti  Ti7  1  0.50240896  -0.00050362  0.00411373  1
  Nb  Nb8  1  0.24773075  0.74066933  0.75730749  1
  Nb  Nb9  1  0.00316649  0.00354414  0.49675455  1
  Nb  Nb10  1  0.99594146  0.50221745  0.49092336  1
  Nb  Nb11  1  0.25376139  0.74771562  0.24118813  1
  Fe  Fe12  1  0.25588973  0.25878890  0.77146744  1
  Fe  Fe13  1  0.74809053  0.74803111  0.23012005  1
  Fe  Fe14  1  0.48877078  0.48843634  0.01067715  1
  Fe  Fe15  1  0.00334843  0.50347916  0.01026819  1
  C  C16  1  0.74444460  0.75053103  0.49683827  1
  C  C17  1  0.74578780  0.24974109  0.49705888  1
  C  C18  1  0.25373300  0.75007593  0.49879872  1
  C  C19  1  0.25354342  0.24906806  0.49683767  1
  C  C20  1  0.50619177  0.49930158  0.23649446  1
  C  C21  1  0.50921382  -0.00103220  0.24709903  1
  C  C22  1  0.74775832  0.74200927  0.01147748  1
  C  C23  1  0.74781146  0.26200806  0.00212998  1
  C  C24  1  0.99235806  0.50091047  0.23389291  1
  C  C25  1  0.99486831  0.00099297  0.24681764  1
  C  C26  1  0.25214408  0.74071133  -0.00029832  1
  C  C27  1  0.25823487  0.26661779  0.99368250  1
  C  C28  1  0.49251437  0.48940528  0.75868785  1
  C  C29  1  0.49453590  1.00535421  0.75467499  1
  C  C30  1  0.00437669  0.49048922  0.76166895  1
  C  C31  1  1.00104680  1.00287912  0.75362220  1
