# generated using pymatgen
data_TaTiNbIrC4
_symmetry_space_group_name_H-M   'P 1'
_cell_length_a   6.30483207
_cell_length_b   6.24355090
_cell_length_c   8.78904228
_cell_angle_alpha   88.49475437
_cell_angle_beta   89.85977013
_cell_angle_gamma   90.01292060
_symmetry_Int_Tables_number   1
_chemical_formula_structural   TaTiNbIrC4
_chemical_formula_sum   'Ta4 Ti4 Nb4 Ir4 C16'
_cell_volume   345.85616740
_cell_formula_units_Z   4
loop_
 _symmetry_equiv_pos_site_id
 _symmetry_equiv_pos_as_xyz
  1  'x, y, z'
loop_
 _atom_site_type_symbol
 _atom_site_label
 _atom_site_symmetry_multiplicity
 _atom_site_fract_x
 _atom_site_fract_y
 _atom_site_fract_z
 _atom_site_occupancy
  Ta  Ta0  1  0.75141049  0.25623365  0.75501488  1
  Ta  Ta1  1  0.74648122  0.75012238  0.76502857  1
  Ta  Ta2  1  0.49670217  0.49857369  0.49657703  1
  Ta  Ta3  1  0.00158060  0.00020777  0.00613970  1
  Ti  Ti4  1  0.50235760  1.00165112  0.49678892  1
  Ti  Ti5  1  0.74827505  0.25703061  0.24209807  1
  Ti  Ti6  1  0.25425192  0.25414736  0.24127090  1
  Ti  Ti7  1  0.49518018  0.01182406  1.00278491  1
  Nb  Nb8  1  0.24858843  0.73178462  0.75822112  1
  Nb  Nb9  1  0.00487335  0.00368751  0.49639505  1
  Nb  Nb10  1  0.99574035  0.50468376  0.48847572  1
  Nb  Nb11  1  0.25765101  0.74835149  0.24459994  1
  Ir  Ir12  1  0.25583996  0.22847667  0.74196284  1
  Ir  Ir13  1  0.74425523  0.76697911  0.25382161  1
  Ir  Ir14  1  0.49826433  0.49925501  0.00346218  1
  Ir  Ir15  1  1.00495808  0.49250581  0.00256591  1
  C  C16  1  0.74480963  0.75396365  0.49912098  1
  C  C17  1  0.74661003  0.25075266  0.49865174  1
  C  C18  1  0.25483211  0.75147714  0.50012453  1
  C  C19  1  0.25337799  0.24803515  0.49558824  1
  C  C20  1  0.50563053  0.50027850  0.24588649  1
  C  C21  1  0.50295090  0.00780210  0.24856327  1
  C  C22  1  0.74119825  0.74895188  0.01019262  1
  C  C23  1  0.74597298  0.25387344  1.00177409  1
  C  C24  1  0.99760523  0.49899452  0.24222019  1
  C  C25  1  -0.00021560  0.00669249  0.24984965  1
  C  C26  1  0.25074906  0.74666233  0.00147180  1
  C  C27  1  0.25046758  0.25278885  0.99496000  1
  C  C28  1  0.49773163  0.48957175  0.75443807  1
  C  C29  1  0.49953984  0.99742215  0.75101812  1
  C  C30  1  0.00082869  0.49208117  0.75720948  1
  C  C31  1  0.99977261  0.99585284  0.75332911  1
