# generated using pymatgen
data_TaTiNbCrC4
_symmetry_space_group_name_H-M   'P 1'
_cell_length_a   6.17152597
_cell_length_b   6.16843783
_cell_length_c   8.76816755
_cell_angle_alpha   89.74411978
_cell_angle_beta   89.96105439
_cell_angle_gamma   89.97807068
_symmetry_Int_Tables_number   1
_chemical_formula_structural   TaTiNbCrC4
_chemical_formula_sum   'Ta4 Ti4 Nb4 Cr4 C16'
_cell_volume   333.78908461
_cell_formula_units_Z   4
loop_
 _symmetry_equiv_pos_site_id
 _symmetry_equiv_pos_as_xyz
  1  'x, y, z'
loop_
 _atom_site_type_symbol
 _atom_site_label
 _atom_site_symmetry_multiplicity
 _atom_site_fract_x
 _atom_site_fract_y
 _atom_site_fract_z
 _atom_site_occupancy
  Ta  Ta0  1  0.74819184  0.25102292  0.75681401  1
  Ta  Ta1  1  0.74770854  0.74348772  0.76211835  1
  Ta  Ta2  1  0.50013747  0.49811687  0.49487599  1
  Ta  Ta3  1  0.00353433  0.00827137  0.00366733  1
  Ti  Ti4  1  0.50063054  0.99999886  0.49518590  1
  Ti  Ti5  1  0.74738883  0.25377297  0.24394150  1
  Ti  Ti6  1  0.25255095  0.25328697  0.24290634  1
  Ti  Ti7  1  0.49988335  0.00588831  0.00364359  1
  Nb  Nb8  1  0.25051632  0.74629438  0.75763404  1
  Nb  Nb9  1  0.00088447  -0.00007579  0.49590029  1
  Nb  Nb10  1  1.00093290  0.49895447  0.49330257  1
  Nb  Nb11  1  0.25298771  0.74890356  0.24254715  1
  Cr  Cr12  1  0.25340146  0.25432693  0.75966821  1
  Cr  Cr13  1  0.74733524  0.74747231  0.23698303  1
  Cr  Cr14  1  0.49588228  0.49542442  0.00524649  1
  Cr  Cr15  1  0.00011752  0.49735960  0.00554821  1
  C  C16  1  0.74546554  0.74957038  0.49589201  1
  C  C17  1  0.74591568  0.24848203  0.49774165  1
  C  C18  1  0.25502646  0.75027318  0.49862659  1
  C  C19  1  0.25489829  0.24831419  0.50295724  1
  C  C20  1  0.50803982  0.50042008  0.23978903  1
  C  C21  1  0.50854382  0.99900858  0.24669524  1
  C  C22  1  0.74752656  0.73791000  0.00880643  1
  C  C23  1  0.74577163  0.26287740  0.00240437  1
  C  C24  1  0.99173988  0.49976007  0.23697192  1
  C  C25  1  0.99236992  -0.00163061  0.24655032  1
  C  C26  1  0.25317969  0.74029984  0.00074697  1
  C  C27  1  0.25321206  0.26844724  0.99474901  1
  C  C28  1  0.49535519  0.49134451  0.75797833  1
  C  C29  1  0.49308000  0.00689200  0.75391012  1
  C  C30  1  0.00524527  0.49001214  0.76059570  1
  C  C31  1  0.00361586  0.00471277  0.75449677  1
