# generated using pymatgen
data_TaTiNbCuC4
_symmetry_space_group_name_H-M   'P 1'
_cell_length_a   6.25383148
_cell_length_b   6.26302486
_cell_length_c   8.79594213
_cell_angle_alpha   89.68067677
_cell_angle_beta   89.68085355
_cell_angle_gamma   91.28860829
_symmetry_Int_Tables_number   1
_chemical_formula_structural   TaTiNbCuC4
_chemical_formula_sum   'Ta4 Ti4 Nb4 Cu4 C16'
_cell_volume   344.42053232
_cell_formula_units_Z   4
loop_
 _symmetry_equiv_pos_site_id
 _symmetry_equiv_pos_as_xyz
  1  'x, y, z'
loop_
 _atom_site_type_symbol
 _atom_site_label
 _atom_site_symmetry_multiplicity
 _atom_site_fract_x
 _atom_site_fract_y
 _atom_site_fract_z
 _atom_site_occupancy
  Ta  Ta0  1  0.74331091  0.25006406  0.75833540  1
  Ta  Ta1  1  0.74986883  0.73760528  0.75866857  1
  Ta  Ta2  1  0.50047261  0.49883348  0.49524501  1
  Ta  Ta3  1  -0.00170231  0.00409191  0.00392857  1
  Ti  Ti4  1  0.49749295  1.00309093  0.49409833  1
  Ti  Ti5  1  0.75204847  0.25936074  0.23873930  1
  Ti  Ti6  1  0.26110642  0.25196952  0.23566426  1
  Ti  Ti7  1  0.50156914  -0.00275600  0.00183339  1
  Nb  Nb8  1  0.25141623  0.74157775  0.75933291  1
  Nb  Nb9  1  1.00142814  0.99916565  0.49468663  1
  Nb  Nb10  1  0.00273570  0.49384690  0.49173840  1
  Nb  Nb11  1  0.25146150  0.74290183  0.23924729  1
  Cu  Cu12  1  0.23748350  0.27347840  0.78042978  1
  Cu  Cu13  1  0.72987974  0.76101941  0.23889118  1
  Cu  Cu14  1  0.51397871  0.49847236  0.01173013  1
  Cu  Cu15  1  -0.02284830  0.51689183  0.01373529  1
  C  C16  1  0.74824231  0.75040937  0.49798112  1
  C  C17  1  0.74721029  0.24632771  0.49735666  1
  C  C18  1  0.25414373  0.74961741  0.49826813  1
  C  C19  1  0.25593925  0.24651790  0.49250752  1
  C  C20  1  0.50478882  0.49874656  0.24698095  1
  C  C21  1  0.50310414  0.00526999  0.24905659  1
  C  C22  1  0.74299364  0.75131090  0.00384207  1
  C  C23  1  0.75221581  0.24850550  0.00161357  1
  C  C24  1  0.00513638  0.48906375  0.24393171  1
  C  C25  1  0.00143175  0.00624384  0.24882366  1
  C  C26  1  0.24661021  0.75559016  0.99895351  1
  C  C27  1  0.26975816  0.24412352  0.00189055  1
  C  C28  1  0.49520898  0.49211435  0.75135832  1
  C  C29  1  0.50640010  0.99122423  0.74903242  1
  C  C30  1  0.99708535  0.49700509  0.75171449  1
  C  C31  1  1.00006894  1.00062689  0.75207906  1
