# generated using pymatgen
data_TaTiNbMoC4
_symmetry_space_group_name_H-M   'P 1'
_cell_length_a   6.27435435
_cell_length_b   6.28229587
_cell_length_c   8.87175555
_cell_angle_alpha   90.02998260
_cell_angle_beta   90.00951765
_cell_angle_gamma   89.99715108
_symmetry_Int_Tables_number   1
_chemical_formula_structural   TaTiNbMoC4
_chemical_formula_sum   'Ta4 Ti4 Nb4 Mo4 C16'
_cell_volume   349.70104430
_cell_formula_units_Z   4
loop_
 _symmetry_equiv_pos_site_id
 _symmetry_equiv_pos_as_xyz
  1  'x, y, z'
loop_
 _atom_site_type_symbol
 _atom_site_label
 _atom_site_symmetry_multiplicity
 _atom_site_fract_x
 _atom_site_fract_y
 _atom_site_fract_z
 _atom_site_occupancy
  Ta  Ta0  1  0.74904063  0.26261727  0.75654200  1
  Ta  Ta1  1  0.74727204  0.75879217  0.75885307  1
  Ta  Ta2  1  0.50525921  0.50042509  0.49442409  1
  Ta  Ta3  1  0.00835691  0.00953912  0.00254680  1
  Ti  Ti4  1  0.50547802  -0.00432767  0.49811749  1
  Ti  Ti5  1  0.74992680  0.24534568  0.24444298  1
  Ti  Ti6  1  0.25635220  0.24339602  0.25832711  1
  Ti  Ti7  1  0.49755227  0.00852049  0.00200336  1
  Nb  Nb8  1  0.24894301  0.73328372  0.75281405  1
  Nb  Nb9  1  0.99615554  -0.00008423  0.49752110  1
  Nb  Nb10  1  0.99591780  0.50336550  0.49207919  1
  Nb  Nb11  1  0.25079844  0.75149783  0.24666373  1
  Mo  Mo12  1  0.25276211  0.23293993  0.73836523  1
  Mo  Mo13  1  0.73767891  0.75201537  0.23204870  1
  Mo  Mo14  1  0.47801333  0.49555044  0.00959572  1
  Mo  Mo15  1  0.01415657  0.49525082  0.01339203  1
  C  C16  1  0.74588970  0.75258974  0.49928497  1
  C  C17  1  0.74578872  0.24850672  0.49853261  1
  C  C18  1  0.25559282  0.75074716  0.49921433  1
  C  C19  1  0.25584329  0.24824994  0.49970335  1
  C  C20  1  0.50324437  0.49526799  0.24825049  1
  C  C21  1  0.50403792  0.00237571  0.24866907  1
  C  C22  1  0.74796378  0.75336602  0.00137190  1
  C  C23  1  0.74745546  0.25254378  0.00125039  1
  C  C24  1  -0.00259890  0.49504649  0.24689693  1
  C  C25  1  0.99956581  0.00441250  0.24808878  1
  C  C26  1  0.25255858  0.75153118  0.00054445  1
  C  C27  1  0.25376713  0.25292568  0.00146758  1
  C  C28  1  0.50176321  0.49890001  0.75209130  1
  C  C29  1  0.49952582  0.00320969  0.75117553  1
  C  C30  1  0.99716623  0.49825088  0.75272482  1
  C  C31  1  0.99998531  0.00411716  0.75229708  1
