# generated using pymatgen
data_TaTiNbCdC4
_symmetry_space_group_name_H-M   'P 1'
_cell_length_a   6.36583469
_cell_length_b   6.41729258
_cell_length_c   9.10775612
_cell_angle_alpha   90.54736103
_cell_angle_beta   90.02283885
_cell_angle_gamma   89.61860636
_symmetry_Int_Tables_number   1
_chemical_formula_structural   TaTiNbCdC4
_chemical_formula_sum   'Ta4 Ti4 Nb4 Cd4 C16'
_cell_volume   372.03956286
_cell_formula_units_Z   4
loop_
 _symmetry_equiv_pos_site_id
 _symmetry_equiv_pos_as_xyz
  1  'x, y, z'
loop_
 _atom_site_type_symbol
 _atom_site_label
 _atom_site_symmetry_multiplicity
 _atom_site_fract_x
 _atom_site_fract_y
 _atom_site_fract_z
 _atom_site_occupancy
  Ta  Ta0  1  0.74931907  0.24348801  0.74948971  1
  Ta  Ta1  1  0.74875365  0.75238117  0.75014618  1
  Ta  Ta2  1  0.49450733  0.49255115  0.49912712  1
  Ta  Ta3  1  -0.00008479  0.00110685  0.00705839  1
  Ti  Ti4  1  0.50219865  0.99746718  0.49253442  1
  Ti  Ti5  1  0.74627249  0.24846272  0.25157171  1
  Ti  Ti6  1  0.25312027  0.25183542  0.24764636  1
  Ti  Ti7  1  0.49993377  1.00382865  0.00776337  1
  Nb  Nb8  1  0.25135544  0.76016305  0.75157919  1
  Nb  Nb9  1  0.00601628  0.00598640  0.49241501  1
  Nb  Nb10  1  0.99743691  0.50539573  0.49807197  1
  Nb  Nb11  1  0.25288042  0.75196247  0.24945750  1
  Cd  Cd12  1  0.25299885  0.25348893  0.75666143  1
  Cd  Cd13  1  0.74816203  0.74463554  0.24552398  1
  Cd  Cd14  1  0.49856233  0.49838808  0.00191781  1
  Cd  Cd15  1  0.99897473  0.49783086  0.00398285  1
  C  C16  1  0.74496115  0.75454481  0.50259856  1
  C  C17  1  0.74626219  0.24619039  0.49933230  1
  C  C18  1  0.25259506  0.75417401  0.49809312  1
  C  C19  1  0.25315844  0.24587378  0.49353472  1
  C  C20  1  0.49272450  0.48341042  0.26109497  1
  C  C21  1  0.49551186  0.00782878  0.25573256  1
  C  C22  1  0.74764191  0.77367536  0.98696881  1
  C  C23  1  0.74561178  0.23106516  0.99897205  1
  C  C24  1  0.00727014  0.48150264  0.25972375  1
  C  C25  1  0.00459909  0.00720176  0.25273232  1
  C  C26  1  0.25342508  0.76865730  0.99775292  1
  C  C27  1  0.25406949  0.22575621  0.01785401  1
  C  C28  1  0.50879782  0.50792203  0.73851835  1
  C  C29  1  0.50579945  0.99837300  0.74417673  1
  C  C30  1  0.99136016  0.50656137  0.74025774  1
  C  C31  1  0.99497000  0.99863369  0.74742236  1
