# generated using pymatgen
data_TaTiNbCoC4
_symmetry_space_group_name_H-M   'P 1'
_cell_length_a   6.19117145
_cell_length_b   6.16721060
_cell_length_c   8.72139346
_cell_angle_alpha   88.98888530
_cell_angle_beta   89.84831941
_cell_angle_gamma   89.98549000
_symmetry_Int_Tables_number   1
_chemical_formula_structural   TaTiNbCoC4
_chemical_formula_sum   'Ta4 Ti4 Nb4 Co4 C16'
_cell_volume   332.94947142
_cell_formula_units_Z   4
loop_
 _symmetry_equiv_pos_site_id
 _symmetry_equiv_pos_as_xyz
  1  'x, y, z'
loop_
 _atom_site_type_symbol
 _atom_site_label
 _atom_site_symmetry_multiplicity
 _atom_site_fract_x
 _atom_site_fract_y
 _atom_site_fract_z
 _atom_site_occupancy
  Ta  Ta0  1  0.74578362  0.25381736  0.75895536  1
  Ta  Ta1  1  0.75024133  0.74352524  0.76222431  1
  Ta  Ta2  1  0.49742441  0.49576892  0.49530681  1
  Ta  Ta3  1  -0.00390324  0.00274923  0.00555423  1
  Ti  Ti4  1  0.50176111  1.00010043  0.49355587  1
  Ti  Ti5  1  0.74815865  0.25710282  0.24030749  1
  Ti  Ti6  1  0.25420889  0.25725857  0.23522317  1
  Ti  Ti7  1  0.49768384  -0.00251563  0.00262793  1
  Nb  Nb8  1  0.25082077  0.74042306  0.75955185  1
  Nb  Nb9  1  0.00394549  1.00276057  0.49528100  1
  Nb  Nb10  1  0.99756494  0.49977386  0.49107898  1
  Nb  Nb11  1  0.25616455  0.74871848  0.24144193  1
  Co  Co12  1  0.24939709  0.25682913  0.78206247  1
  Co  Co13  1  0.74448534  0.74524195  0.23320312  1
  Co  Co14  1  0.51350808  0.49332041  0.00572681  1
  Co  Co15  1  0.99812191  0.50973601  0.00989930  1
  C  C16  1  0.74456434  0.75092919  0.49693256  1
  C  C17  1  0.74519282  0.24783349  0.49851331  1
  C  C18  1  0.25317958  0.74933056  0.50000379  1
  C  C19  1  0.25451804  0.24853089  0.48824800  1
  C  C20  1  0.51083681  0.50313292  0.23813999  1
  C  C21  1  0.50909365  -0.00130863  0.24618632  1
  C  C22  1  0.74874391  0.73347457  0.01146573  1
  C  C23  1  0.74173496  0.26275127  1.00256444  1
  C  C24  1  0.99085040  0.50347000  0.23423163  1
  C  C25  1  0.99551044  0.00353404  0.24727308  1
  C  C26  1  0.24900282  0.74042606  0.00131250  1
  C  C27  1  0.25399135  0.26096686  0.99146351  1
  C  C28  1  0.49444620  0.49061403  0.75890343  1
  C  C29  1  0.49404110  1.00605015  0.75455463  1
  C  C30  1  0.00613511  0.48898035  0.76089022  1
  C  C31  1  1.00467429  1.00791989  0.75497051  1
