# generated using pymatgen
data_HfTaTiNbC4
_symmetry_space_group_name_H-M   'P 1'
_cell_length_a   6.36367106
_cell_length_b   6.35899753
_cell_length_c   9.01006711
_cell_angle_alpha   89.99317963
_cell_angle_beta   90.01623925
_cell_angle_gamma   89.98586318
_symmetry_Int_Tables_number   1
_chemical_formula_structural   HfTaTiNbC4
_chemical_formula_sum   'Hf4 Ta4 Ti4 Nb4 C16'
_cell_volume   364.60646978
_cell_formula_units_Z   4
loop_
 _symmetry_equiv_pos_site_id
 _symmetry_equiv_pos_as_xyz
  1  'x, y, z'
loop_
 _atom_site_type_symbol
 _atom_site_label
 _atom_site_symmetry_multiplicity
 _atom_site_fract_x
 _atom_site_fract_y
 _atom_site_fract_z
 _atom_site_occupancy
  Hf  Hf0  1  0.25227225  0.24583079  0.74825671  1
  Hf  Hf1  1  0.74675525  0.75359770  0.25180515  1
  Hf  Hf2  1  0.50034479  0.49792198  0.00167580  1
  Hf  Hf3  1  0.00117271  0.49741701  0.00268646  1
  Ta  Ta4  1  0.75035158  0.24284002  0.74621516  1
  Ta  Ta5  1  0.74916305  0.75369595  0.74635362  1
  Ta  Ta6  1  0.49871659  0.49973138  0.49916531  1
  Ta  Ta7  1  0.00035437  0.00089915  0.00413040  1
  Ti  Ti8  1  0.49953355  0.00351788  0.49469499  1
  Ti  Ti9  1  0.74848264  0.25010154  0.25487262  1
  Ti  Ti10  1  0.25292481  0.24851274  0.25387567  1
  Ti  Ti11  1  0.49707517  0.00226372  0.00675674  1
  Nb  Nb12  1  0.25009196  0.75500957  0.74476160  1
  Nb  Nb13  1  0.00265756  0.00157177  0.49444851  1
  Nb  Nb14  1  0.00113717  0.49859106  0.49731986  1
  Nb  Nb15  1  0.24934756  0.75091826  0.25553034  1
  C  C16  1  0.74551111  0.75314940  0.50186296  1
  C  C17  1  0.74587316  0.24773423  0.49887194  1
  C  C18  1  0.25492071  0.75297111  0.49940471  1
  C  C19  1  0.25525960  0.24793835  0.49534068  1
  C  C20  1  0.49872367  0.49278268  0.25394691  1
  C  C21  1  0.49836880  0.00857602  0.25203674  1
  C  C22  1  0.74822925  0.75809113  0.99785558  1
  C  C23  1  0.74791048  0.24065984  1.00046827  1
  C  C24  1  -0.00034121  0.49172287  0.25223195  1
  C  C25  1  0.00055239  0.00811714  0.24914012  1
  C  C26  1  0.25194565  0.75784896  1.00046452  1
  C  C27  1  0.25206384  0.24072344  0.00428621  1
  C  C28  1  0.50473632  0.49972661  0.74656973  1
  C  C29  1  0.50420389  0.99820558  0.74627338  1
  C  C30  1  0.99544579  0.49900452  0.74760597  1
  C  C31  1  0.99628052  0.99847619  0.74978568  1
