# generated using pymatgen
data_TaTiNbCdC4
_symmetry_space_group_name_H-M   'P 1'
_cell_length_a   6.36600146
_cell_length_b   6.41748536
_cell_length_c   9.10712038
_cell_angle_alpha   90.54774162
_cell_angle_beta   90.02767548
_cell_angle_gamma   89.60744177
_symmetry_Int_Tables_number   1
_chemical_formula_structural   TaTiNbCdC4
_chemical_formula_sum   'Ta4 Ti4 Nb4 Cd4 C16'
_cell_volume   372.03399049
_cell_formula_units_Z   4
loop_
 _symmetry_equiv_pos_site_id
 _symmetry_equiv_pos_as_xyz
  1  'x, y, z'
loop_
 _atom_site_type_symbol
 _atom_site_label
 _atom_site_symmetry_multiplicity
 _atom_site_fract_x
 _atom_site_fract_y
 _atom_site_fract_z
 _atom_site_occupancy
  Ta  Ta0  1  0.74928123  0.24354162  0.74955918  1
  Ta  Ta1  1  0.74888559  0.75246506  0.75015906  1
  Ta  Ta2  1  0.49470722  0.49238500  0.49906697  1
  Ta  Ta3  1  -0.00013039  0.00111291  0.00704682  1
  Ti  Ti4  1  0.50235713  0.99744498  0.49246855  1
  Ti  Ti5  1  0.74617765  0.24831780  0.25131424  1
  Ti  Ti6  1  0.25295306  0.25207648  0.24770035  1
  Ti  Ti7  1  0.49964197  1.00380664  0.00786611  1
  Nb  Nb8  1  0.25151348  0.76015295  0.75142892  1
  Nb  Nb9  1  0.00599594  0.00603674  0.49236382  1
  Nb  Nb10  1  0.99751329  0.50542793  0.49811651  1
  Nb  Nb11  1  0.25290792  0.75202207  0.24959055  1
  Cd  Cd12  1  0.25301888  0.25344519  0.75662363  1
  Cd  Cd13  1  0.74822141  0.74446336  0.24545507  1
  Cd  Cd14  1  0.49866866  0.49837153  0.00187198  1
  Cd  Cd15  1  0.99931097  0.49788570  0.00386138  1
  C  C16  1  0.74506834  0.75452582  0.50253889  1
  C  C17  1  0.74635247  0.24622493  0.49933581  1
  C  C18  1  0.25267700  0.75422407  0.49808417  1
  C  C19  1  0.25325826  0.24588044  0.49348057  1
  C  C20  1  0.49275116  0.48340131  0.26106961  1
  C  C21  1  0.49562692  0.00778342  0.25568833  1
  C  C22  1  0.74784337  0.77364161  0.98693637  1
  C  C23  1  0.74554760  0.23107480  0.99901862  1
  C  C24  1  0.00737498  0.48147443  0.25974163  1
  C  C25  1  0.00459981  0.00724045  0.25270583  1
  C  C26  1  0.25352339  0.76873151  0.99776816  1
  C  C27  1  0.25399342  0.22581393  0.01789838  1
  C  C28  1  0.50890309  0.50791271  0.73849629  1
  C  C29  1  0.50585572  0.99838685  0.74415685  1
  C  C30  1  0.99142176  0.50653624  0.74021675  1
  C  C31  1  0.99502745  0.99862175  0.74736199  1
