# generated using pymatgen
data_TaTiNbAgC4
_symmetry_space_group_name_H-M   'P 1'
_cell_length_a   6.37730852
_cell_length_b   6.40233572
_cell_length_c   8.95771979
_cell_angle_alpha   90.24973241
_cell_angle_beta   89.86668590
_cell_angle_gamma   91.11182960
_symmetry_Int_Tables_number   1
_chemical_formula_structural   TaTiNbAgC4
_chemical_formula_sum   'Ta4 Ti4 Nb4 Ag4 C16'
_cell_volume   365.66749207
_cell_formula_units_Z   4
loop_
 _symmetry_equiv_pos_site_id
 _symmetry_equiv_pos_as_xyz
  1  'x, y, z'
loop_
 _atom_site_type_symbol
 _atom_site_label
 _atom_site_symmetry_multiplicity
 _atom_site_fract_x
 _atom_site_fract_y
 _atom_site_fract_z
 _atom_site_occupancy
  Ta  Ta0  1  0.75307504  0.24972292  0.75382814  1
  Ta  Ta1  1  0.74661884  0.74847786  0.75142655  1
  Ta  Ta2  1  0.49723328  0.49451935  0.49681332  1
  Ta  Ta3  1  0.00133916  0.00134942  0.00493835  1
  Ti  Ti4  1  0.49940371  1.00050441  0.49553075  1
  Ti  Ti5  1  0.74791679  0.24714751  0.24391810  1
  Ti  Ti6  1  0.25582339  0.24939937  0.24711673  1
  Ti  Ti7  1  0.50073921  -0.00008519  0.00139543  1
  Nb  Nb8  1  0.24736578  0.75448227  0.75314791  1
  Nb  Nb9  1  0.00314812  0.00501772  0.49486351  1
  Nb  Nb10  1  -0.00092268  0.50243105  0.49430164  1
  Nb  Nb11  1  0.25019017  0.75350090  0.24589433  1
  Ag  Ag12  1  0.25770413  0.25933840  0.76522004  1
  Ag  Ag13  1  0.73898195  0.74791839  0.23750620  1
  Ag  Ag14  1  0.49111500  0.49229298  0.01015000  1
  Ag  Ag15  1  0.99350186  0.49519366  0.01091154  1
  C  C16  1  0.74746686  0.75213872  0.50152420  1
  C  C17  1  0.74776012  0.24803359  0.49893418  1
  C  C18  1  0.25407227  0.75324347  0.49808421  1
  C  C19  1  0.25419410  0.24707364  0.49361920  1
  C  C20  1  0.49352776  0.48504076  0.25898266  1
  C  C21  1  0.49373919  0.00985130  0.25456603  1
  C  C22  1  0.74031170  0.77720005  0.99026364  1
  C  C23  1  0.75295590  0.23228089  1.00007738  1
  C  C24  1  0.01156450  0.48005289  0.25615168  1
  C  C25  1  0.00466195  0.00667665  0.25098563  1
  C  C26  1  0.24929776  0.76813676  0.99831007  1
  C  C27  1  0.26144673  0.22193669  0.01458862  1
  C  C28  1  0.50825815  0.50593806  0.74103977  1
  C  C29  1  0.50967052  0.99864328  0.74527251  1
  C  C30  1  0.99119267  0.51171716  0.74417940  1
  C  C31  1  0.99599577  1.00101840  0.74813357  1
