# generated using pymatgen
data_TiReN2
_symmetry_space_group_name_H-M   'P 1'
_cell_length_a   5.27283869
_cell_length_b   6.28050821
_cell_length_c   7.54011002
_cell_angle_alpha   84.84003525
_cell_angle_beta   94.55481208
_cell_angle_gamma   95.18658168
_symmetry_Int_Tables_number   1
_chemical_formula_structural   TiReN2
_chemical_formula_sum   'Ti6 Re6 N12'
_cell_volume   247.02853889
_cell_formula_units_Z   6
loop_
 _symmetry_equiv_pos_site_id
 _symmetry_equiv_pos_as_xyz
  1  'x, y, z'
loop_
 _atom_site_type_symbol
 _atom_site_label
 _atom_site_symmetry_multiplicity
 _atom_site_fract_x
 _atom_site_fract_y
 _atom_site_fract_z
 _atom_site_occupancy
  Ti  Ti0  1  0.15011625  0.74385365  0.33814424  1
  Ti  Ti1  1  0.47173415  0.79224452  0.01090601  1
  Ti  Ti2  1  0.97461959  0.53627097  0.00880413  1
  Ti  Ti3  1  0.18316331  0.23758625  0.32866148  1
  Ti  Ti4  1  0.84514655  0.24694362  0.65945206  1
  Ti  Ti5  1  0.67529783  -0.00030467  0.33117248  1
  Re  Re6  1  0.51308140  0.32353472  0.06307251  1
  Re  Re7  1  0.24741364  1.02029087  0.71573128  1
  Re  Re8  1  0.37516435  0.47002291  0.63294326  1
  Re  Re9  1  0.98646819  0.99029582  0.98445356  1
  Re  Re10  1  0.81581715  0.76777904  0.70883610  1
  Re  Re11  1  0.66128120  0.50678003  0.35098949  1
  N  N12  1  0.20473323  0.27484967  0.85620046  1
  N  N13  1  0.52269157  0.22668026  0.48625483  1
  N  N14  1  0.33489475  0.01357874  0.16455230  1
  N  N15  1  0.19535870  0.69635402  0.79400889  1
  N  N16  1  0.51829072  0.73916404  0.48778968  1
  N  N17  1  0.30614343  0.52831430  0.17581477  1
  N  N18  1  0.85361760  0.22289440  0.13703843  1
  N  N19  1  0.63202546  -0.00698228  0.80364576  1
  N  N20  1  0.00707193  -0.01894253  0.49950710  1
  N  N21  1  0.81749691  0.76619653  0.16814717  1
  N  N22  1  0.68669210  0.46315430  0.81938268  1
  N  N23  1  1.02558927  0.45894313  0.47361039  1
