# generated using pymatgen
data_Ti11ReN12
_symmetry_space_group_name_H-M   'P 1'
_cell_length_a   5.21564118
_cell_length_b   6.01895551
_cell_length_c   7.37909153
_cell_angle_alpha   90.00283063
_cell_angle_beta   89.99847523
_cell_angle_gamma   89.99804839
_symmetry_Int_Tables_number   1
_chemical_formula_structural   Ti11ReN12
_chemical_formula_sum   'Ti11 Re1 N12'
_cell_volume   231.64969616
_cell_formula_units_Z   1
loop_
 _symmetry_equiv_pos_site_id
 _symmetry_equiv_pos_as_xyz
  1  'x, y, z'
loop_
 _atom_site_type_symbol
 _atom_site_label
 _atom_site_symmetry_multiplicity
 _atom_site_fract_x
 _atom_site_fract_y
 _atom_site_fract_z
 _atom_site_occupancy
  Ti  Ti0  1  0.50239879  0.25042697  0.00286562  1
  Ti  Ti1  1  0.32931859  0.99993323  0.67015718  1
  Ti  Ti2  1  0.16620147  0.74715403  0.33343599  1
  Ti  Ti3  1  0.50155661  0.74908144  0.00327435  1
  Ti  Ti4  1  0.33922673  0.49974008  0.66785552  1
  Ti  Ti5  1  0.00475243  1.00012859  0.99609260  1
  Ti  Ti6  1  0.83168753  0.74954240  0.66372765  1
  Ti  Ti7  1  0.99441051  0.50004235  0.99921560  1
  Ti  Ti8  1  0.16658908  0.25254580  0.33318928  1
  Ti  Ti9  1  0.83169682  0.25059449  0.66334597  1
  Ti  Ti10  1  0.66612338  0.99936493  0.33339621  1
  Re  Re11  1  0.66741655  0.50041453  0.33331919  1
  N  N12  1  0.16689190  0.25170193  0.83342173  1
  N  N13  1  0.49734017  0.24657273  0.50179069  1
  N  N14  1  0.33325654  -0.00004340  0.16759310  1
  N  N15  1  0.16670564  0.74815015  0.83340509  1
  N  N16  1  0.49723621  0.75314750  0.50226011  1
  N  N17  1  0.32871852  0.49952203  0.16355939  1
  N  N18  1  0.83577335  0.24625042  0.16467885  1
  N  N19  1  0.66692713  -0.00019903  0.83336807  1
  N  N20  1  0.99963049  1.00010839  0.49888983  1
  N  N21  1  0.83574239  0.75349447  0.16422186  1
  N  N22  1  0.66705806  0.50028533  0.83326427  1
  N  N23  1  0.00469862  0.49989045  0.50328027  1
