# generated using pymatgen
data_Ti3WN4
_symmetry_space_group_name_H-M   'P 1'
_cell_length_a   5.25677413
_cell_length_b   6.04383583
_cell_length_c   7.45752710
_cell_angle_alpha   90.00225898
_cell_angle_beta   90.14119310
_cell_angle_gamma   89.99639293
_symmetry_Int_Tables_number   1
_chemical_formula_structural   Ti3WN4
_chemical_formula_sum   'Ti9 W3 N12'
_cell_volume   236.93296874
_cell_formula_units_Z   3
loop_
 _symmetry_equiv_pos_site_id
 _symmetry_equiv_pos_as_xyz
  1  'x, y, z'
loop_
 _atom_site_type_symbol
 _atom_site_label
 _atom_site_symmetry_multiplicity
 _atom_site_fract_x
 _atom_site_fract_y
 _atom_site_fract_z
 _atom_site_occupancy
  Ti  Ti0  1  0.49715044  0.24689298  -0.00381502  1
  Ti  Ti1  1  0.16470897  0.74924956  0.33659680  1
  Ti  Ti2  1  0.49723100  0.75365640  -0.00351152  1
  Ti  Ti3  1  0.99929327  1.00043875  0.00528848  1
  Ti  Ti4  1  0.83959589  0.74943117  0.66828511  1
  Ti  Ti5  1  0.99465334  0.49996421  0.00626019  1
  Ti  Ti6  1  0.16557688  0.25059694  0.33636663  1
  Ti  Ti7  1  0.83978585  0.25125295  0.66813548  1
  Ti  Ti8  1  0.66072641  0.99991839  0.33136387  1
  W  W9  1  0.33388707  0.99913898  0.66404446  1
  W  W10  1  0.34214769  0.49997110  0.67404921  1
  W  W11  1  0.66650390  0.49975391  0.31497534  1
  N  N12  1  0.16145501  0.24807195  0.84018438  1
  N  N13  1  0.50696881  0.25241940  0.49678010  1
  N  N14  1  0.33275591  0.00011885  0.16833829  1
  N  N15  1  0.16130750  0.75158824  0.84042590  1
  N  N16  1  0.50683056  0.74706682  0.49658047  1
  N  N17  1  0.32707103  0.50024075  0.16269048  1
  N  N18  1  0.83255750  0.24429140  0.16523807  1
  N  N19  1  0.67324753  0.00042349  0.83322089  1
  N  N20  1  0.99306498  1.00027864  0.49809920  1
  N  N21  1  0.83239239  0.75553806  0.16520954  1
  N  N22  1  0.67175754  0.50030795  0.83685383  1
  N  N23  1  1.00085756  0.49995005  0.49950977  1
