# generated using pymatgen
data_TaTi3N4
_symmetry_space_group_name_H-M   'P 1'
_cell_length_a   5.27138844
_cell_length_b   6.08457636
_cell_length_c   7.45263201
_cell_angle_alpha   89.99495216
_cell_angle_beta   90.10146605
_cell_angle_gamma   90.00087173
_symmetry_Int_Tables_number   1
_chemical_formula_structural   TaTi3N4
_chemical_formula_sum   'Ta3 Ti9 N12'
_cell_volume   239.03657655
_cell_formula_units_Z   3
loop_
 _symmetry_equiv_pos_site_id
 _symmetry_equiv_pos_as_xyz
  1  'x, y, z'
loop_
 _atom_site_type_symbol
 _atom_site_label
 _atom_site_symmetry_multiplicity
 _atom_site_fract_x
 _atom_site_fract_y
 _atom_site_fract_z
 _atom_site_occupancy
  Ta  Ta0  1  0.33354136  0.00057991  0.66644878  1
  Ta  Ta1  1  0.32978975  0.50069343  0.67111615  1
  Ta  Ta2  1  0.67334664  0.49988292  0.33001923  1
  Ti  Ti3  1  0.49980758  0.24886256  0.00244002  1
  Ti  Ti4  1  0.16609273  0.75252753  0.32826296  1
  Ti  Ti5  1  0.49973986  0.75096705  0.00266411  1
  Ti  Ti6  1  0.99508157  0.00025062  0.00258596  1
  Ti  Ti7  1  0.83416374  0.75180798  0.66904766  1
  Ti  Ti8  1  -0.00114649  0.50020822  0.99780785  1
  Ti  Ti9  1  0.16608932  0.24720607  0.32826989  1
  Ti  Ti10  1  0.83418776  0.24840893  0.66911669  1
  Ti  Ti11  1  0.66903475  1.00001549  0.33270218  1
  N  N12  1  0.16362544  0.24747291  0.83748293  1
  N  N13  1  0.50087319  0.24970763  0.49722330  1
  N  N14  1  0.33369050  -0.00002894  0.16553331  1
  N  N15  1  0.16359866  0.75332665  0.83749461  1
  N  N16  1  0.50106414  0.75064269  0.49730561  1
  N  N17  1  0.33230672  0.49992665  0.16606472  1
  N  N18  1  0.83467084  0.24928811  0.16520459  1
  N  N19  1  0.66701399  -0.00022707  0.83556036  1
  N  N20  1  0.99924398  0.99986936  0.49771843  1
  N  N21  1  0.83470837  0.75095940  0.16509059  1
  N  N22  1  0.66686231  0.49988399  0.83557517  1
  N  N23  1  0.00020644  0.49986378  0.49970408  1
