# generated using pymatgen
data_HfTi3N4
_symmetry_space_group_name_H-M   'P 1'
_cell_length_a   5.31343275
_cell_length_b   6.11754650
_cell_length_c   7.48988964
_cell_angle_alpha   89.99692599
_cell_angle_beta   89.90506523
_cell_angle_gamma   90.00161062
_symmetry_Int_Tables_number   1
_chemical_formula_structural   HfTi3N4
_chemical_formula_sum   'Hf3 Ti9 N12'
_cell_volume   243.45981602
_cell_formula_units_Z   3
loop_
 _symmetry_equiv_pos_site_id
 _symmetry_equiv_pos_as_xyz
  1  'x, y, z'
loop_
 _atom_site_type_symbol
 _atom_site_label
 _atom_site_symmetry_multiplicity
 _atom_site_fract_x
 _atom_site_fract_y
 _atom_site_fract_z
 _atom_site_occupancy
  Hf  Hf0  1  0.32893440  0.00002953  0.66703896  1
  Hf  Hf1  1  0.33009615  0.49986614  0.67136441  1
  Hf  Hf2  1  0.67200937  0.49993362  0.32830357  1
  Ti  Ti3  1  0.50115596  0.24894691  0.00318249  1
  Ti  Ti4  1  0.16550415  0.75434475  0.32450885  1
  Ti  Ti5  1  0.50132671  0.75130549  0.00313214  1
  Ti  Ti6  1  0.99697662  1.00016955  0.00301380  1
  Ti  Ti7  1  0.83350961  0.75223367  0.67240477  1
  Ti  Ti8  1  0.99832769  0.50013250  0.00109569  1
  Ti  Ti9  1  0.16527362  0.24564456  0.32444997  1
  Ti  Ti10  1  0.83338279  0.24789141  0.67253573  1
  Ti  Ti11  1  0.67204729  -0.00009246  0.33029332  1
  N  N12  1  0.16300208  0.24909364  0.83992877  1
  N  N13  1  0.50174703  0.24685144  0.49681699  1
  N  N14  1  0.33512013  0.00002878  0.16490928  1
  N  N15  1  0.16292671  0.75108024  0.83963466  1
  N  N16  1  0.50179436  0.75310248  0.49673603  1
  N  N17  1  0.32849954  0.49997548  0.16304644  1
  N  N18  1  0.83588515  0.24678517  0.16292409  1
  N  N19  1  0.66749747  -0.00009667  0.83743693  1
  N  N20  1  0.99673660  -0.00001249  0.49527791  1
  N  N21  1  0.83588821  0.75348495  0.16310925  1
  N  N22  1  0.66940154  0.50018337  0.83849604  1
  N  N23  1  0.00279276  0.50003530  0.49927180  1
