# generated using pymatgen
data_TaTi11N12
_symmetry_space_group_name_H-M   'P 1'
_cell_length_a   5.23784980
_cell_length_b   6.02597986
_cell_length_c   7.40078475
_cell_angle_alpha   89.99943493
_cell_angle_beta   89.86605441
_cell_angle_gamma   90.00069969
_symmetry_Int_Tables_number   1
_chemical_formula_structural   TaTi11N12
_chemical_formula_sum   'Ta1 Ti11 N12'
_cell_volume   233.59164345
_cell_formula_units_Z   1
loop_
 _symmetry_equiv_pos_site_id
 _symmetry_equiv_pos_as_xyz
  1  'x, y, z'
loop_
 _atom_site_type_symbol
 _atom_site_label
 _atom_site_symmetry_multiplicity
 _atom_site_fract_x
 _atom_site_fract_y
 _atom_site_fract_z
 _atom_site_occupancy
  Ta  Ta0  1  0.66650946  0.49988752  0.33317062  1
  Ti  Ti1  1  0.49885885  0.24856866  0.99645113  1
  Ti  Ti2  1  0.33283938  0.99955591  0.66548365  1
  Ti  Ti3  1  0.16659420  0.75416075  0.33359712  1
  Ti  Ti4  1  0.49885317  0.75131147  0.99729223  1
  Ti  Ti5  1  0.33107201  0.49982867  0.66911973  1
  Ti  Ti6  1  1.00022925  0.99929300  0.00095364  1
  Ti  Ti7  1  0.83397278  0.75103039  0.66985273  1
  Ti  Ti8  1  0.00201319  0.49962426  0.99742792  1
  Ti  Ti9  1  0.16673776  0.24591327  0.33306492  1
  Ti  Ti10  1  0.83508049  0.24832285  0.66956032  1
  Ti  Ti11  1  0.66626356  0.00027544  0.33324481  1
  N  N12  1  0.16676235  0.24785929  0.83335853  1
  N  N13  1  0.49925368  0.24902868  0.50209190  1
  N  N14  1  0.33374751  1.00005721  0.16472117  1
  N  N15  1  0.16670169  0.75138512  0.83333028  1
  N  N16  1  0.49920250  0.75082940  0.50214117  1
  N  N17  1  0.33241856  0.50021858  0.16562534  1
  N  N18  1  0.83456424  0.24898074  0.16461606  1
  N  N19  1  0.66680639  0.00006185  0.83347143  1
  N  N20  1  0.99941614  1.00007058  0.50215431  1
  N  N21  1  0.83432456  0.75085439  0.16481727  1
  N  N22  1  0.66612786  0.50004748  0.83354750  1
  N  N23  1  0.00062895  0.50024540  0.50115836  1
