# generated using pymatgen
data_Ti11WN12
_symmetry_space_group_name_H-M   'P 1'
_cell_length_a   5.22796564
_cell_length_b   6.02806051
_cell_length_c   7.39077565
_cell_angle_alpha   90.00111015
_cell_angle_beta   89.90028026
_cell_angle_gamma   89.99903394
_symmetry_Int_Tables_number   1
_chemical_formula_structural   Ti11WN12
_chemical_formula_sum   'Ti11 W1 N12'
_cell_volume   232.91619608
_cell_formula_units_Z   1
loop_
 _symmetry_equiv_pos_site_id
 _symmetry_equiv_pos_as_xyz
  1  'x, y, z'
loop_
 _atom_site_type_symbol
 _atom_site_label
 _atom_site_symmetry_multiplicity
 _atom_site_fract_x
 _atom_site_fract_y
 _atom_site_fract_z
 _atom_site_occupancy
  Ti  Ti0  1  0.49970373  0.24826782  -0.00005148  1
  Ti  Ti1  1  0.32993037  0.99979887  0.66876608  1
  Ti  Ti2  1  0.16640124  0.74932908  0.33375326  1
  Ti  Ti3  1  0.49964837  0.75161391  0.00010006  1
  Ti  Ti4  1  0.33774528  0.49966847  0.67039514  1
  Ti  Ti5  1  0.00336879  1.00012336  -0.00171082  1
  Ti  Ti6  1  0.83323631  0.75210753  0.66633080  1
  Ti  Ti7  1  0.99579329  0.50021479  0.99678527  1
  Ti  Ti8  1  0.16663239  0.25041815  0.33349352  1
  Ti  Ti9  1  0.83393354  0.24860848  0.66648889  1
  Ti  Ti10  1  0.66668660  0.99991637  0.33322844  1
  W  W11  1  0.66657544  0.49992322  0.33313235  1
  N  N12  1  0.16686829  0.25075337  0.83344781  1
  N  N13  1  0.49799640  0.24696652  0.50246911  1
  N  N14  1  0.33361519  0.00002378  0.16736687  1
  N  N15  1  0.16673628  0.74933304  0.83345358  1
  N  N16  1  0.49763514  0.75302750  0.50245819  1
  N  N17  1  0.32884060  0.49998777  0.16392391  1
  N  N18  1  0.83574436  0.24685463  0.16410566  1
  N  N19  1  0.66742322  0.99992611  0.83320511  1
  N  N20  1  1.00023536  0.00012927  0.49932407  1
  N  N21  1  0.83574469  0.75326186  0.16409702  1
  N  N22  1  0.66729914  0.50004620  0.83321374  1
  N  N23  1  0.00464528  0.50010234  0.50269199  1
