# generated using pymatgen
data_HfTi11N12
_symmetry_space_group_name_H-M   'P 1'
_cell_length_a   5.26055546
_cell_length_b   6.04414535
_cell_length_c   7.41691253
_cell_angle_alpha   90.00033788
_cell_angle_beta   89.80683331
_cell_angle_gamma   90.00069036
_symmetry_Int_Tables_number   1
_chemical_formula_structural   HfTi11N12
_chemical_formula_sum   'Hf1 Ti11 N12'
_cell_volume   235.82356020
_cell_formula_units_Z   1
loop_
 _symmetry_equiv_pos_site_id
 _symmetry_equiv_pos_as_xyz
  1  'x, y, z'
loop_
 _atom_site_type_symbol
 _atom_site_label
 _atom_site_symmetry_multiplicity
 _atom_site_fract_x
 _atom_site_fract_y
 _atom_site_fract_z
 _atom_site_occupancy
  Hf  Hf0  1  0.66639187  0.50005175  0.33324767  1
  Ti  Ti1  1  0.49900811  0.24852905  0.99552414  1
  Ti  Ti2  1  0.33156870  0.99988031  0.66741009  1
  Ti  Ti3  1  0.16651643  0.75469987  0.33332397  1
  Ti  Ti4  1  0.49903553  0.75182407  0.99556186  1
  Ti  Ti5  1  0.33065166  0.49982265  0.66965677  1
  Ti  Ti6  1  0.00153365  0.00014951  0.99916416  1
  Ti  Ti7  1  0.83431867  0.75185399  0.67111201  1
  Ti  Ti8  1  0.00278929  0.50025840  0.99691501  1
  Ti  Ti9  1  0.16643442  0.24553780  0.33345214  1
  Ti  Ti10  1  0.83410923  0.24831310  0.67119314  1
  Ti  Ti11  1  0.66652272  0.00022725  0.33328391  1
  N  N12  1  0.16678062  0.24878642  0.83329162  1
  N  N13  1  0.49737926  0.24702874  0.50411237  1
  N  N14  1  0.33556999  0.00019386  0.16535725  1
  N  N15  1  0.16667002  0.75120719  0.83339328  1
  N  N16  1  0.49729475  0.75290355  0.50406251  1
  N  N17  1  0.32789856  0.50009690  0.16335007  1
  N  N18  1  0.83593694  0.24718931  0.16250877  1
  N  N19  1  0.66691525  1.00002162  0.83322709  1
  N  N20  1  0.99780808  0.99997513  0.50107675  1
  N  N21  1  0.83572676  0.75323971  0.16243532  1
  N  N22  1  0.66667203  0.49982820  0.83344115  1
  N  N23  1  0.00519435  0.50003198  0.50326210  1
