# generated using pymatgen
data_TiMo3N4
_symmetry_space_group_name_H-M   'P 1'
_cell_length_a   5.34541515
_cell_length_b   6.11361578
_cell_length_c   7.51032308
_cell_angle_alpha   90.61473608
_cell_angle_beta   89.24488095
_cell_angle_gamma   90.76131707
_symmetry_Int_Tables_number   1
_chemical_formula_structural   TiMo3N4
_chemical_formula_sum   'Ti3 Mo9 N12'
_cell_volume   245.37931301
_cell_formula_units_Z   3
loop_
 _symmetry_equiv_pos_site_id
 _symmetry_equiv_pos_as_xyz
  1  'x, y, z'
loop_
 _atom_site_type_symbol
 _atom_site_label
 _atom_site_symmetry_multiplicity
 _atom_site_fract_x
 _atom_site_fract_y
 _atom_site_fract_z
 _atom_site_occupancy
  Ti  Ti0  1  0.18030907  0.24161512  0.33143032  1
  Ti  Ti1  1  0.83465459  0.24159229  0.66635670  1
  Ti  Ti2  1  0.65137069  0.01066771  0.32705889  1
  Mo  Mo3  1  0.51353792  0.27198042  0.02134334  1
  Mo  Mo4  1  0.29492566  0.98603666  0.67901996  1
  Mo  Mo5  1  0.17467365  0.74528816  0.36865401  1
  Mo  Mo6  1  0.54557567  0.74151872  -0.00640728  1
  Mo  Mo7  1  0.32942577  0.51611817  0.63514239  1
  Mo  Mo8  1  0.99514208  0.99544684  0.97180364  1
  Mo  Mo9  1  0.86938070  0.75108295  0.67984627  1
  Mo  Mo10  1  0.64471874  0.50896552  0.30966450  1
  Mo  Mo11  1  0.95342021  0.50202271  0.00837353  1
  N  N12  1  0.17194183  0.26066676  0.83268278  1
  N  N13  1  0.49845629  0.24519622  0.50016202  1
  N  N14  1  0.33499741  0.99441840  0.16261939  1
  N  N15  1  0.19183957  0.72764108  0.85342279  1
  N  N16  1  0.53078793  0.76400178  0.50099660  1
  N  N17  1  0.30762504  0.50590273  0.16586540  1
  N  N18  1  0.85125432  0.23911677  0.17644060  1
  N  N19  1  0.64971115  0.00656075  0.82885524  1
  N  N20  1  0.98733478  0.00983878  0.49344927  1
  N  N21  1  0.85023305  0.76639236  0.18334498  1
  N  N22  1  0.65681591  0.48475914  0.81421196  1
  N  N23  1  0.98200597  0.48305287  0.49661040  1
