# generated using pymatgen
data_TiNb3N4
_symmetry_space_group_name_H-M   'P 1'
_cell_length_a   5.40745857
_cell_length_b   6.19685457
_cell_length_c   7.64741881
_cell_angle_alpha   90.10981805
_cell_angle_beta   89.49655254
_cell_angle_gamma   90.17370049
_symmetry_Int_Tables_number   1
_chemical_formula_structural   TiNb3N4
_chemical_formula_sum   'Ti3 Nb9 N12'
_cell_volume   256.24762112
_cell_formula_units_Z   3
loop_
 _symmetry_equiv_pos_site_id
 _symmetry_equiv_pos_as_xyz
  1  'x, y, z'
loop_
 _atom_site_type_symbol
 _atom_site_label
 _atom_site_symmetry_multiplicity
 _atom_site_fract_x
 _atom_site_fract_y
 _atom_site_fract_z
 _atom_site_occupancy
  Ti  Ti0  1  0.17198826  0.24608874  0.33696043  1
  Ti  Ti1  1  0.83298782  0.24932008  0.66188322  1
  Ti  Ti2  1  0.66375569  0.00480912  0.33145321  1
  Nb  Nb3  1  0.49199818  0.24444085  0.00792604  1
  Nb  Nb4  1  0.31556056  1.00022345  0.66780643  1
  Nb  Nb5  1  0.16448824  0.74632878  0.34654508  1
  Nb  Nb6  1  0.51611333  0.74972791  -0.00202031  1
  Nb  Nb7  1  0.35020204  0.50893283  0.65340429  1
  Nb  Nb8  1  1.00191796  0.00413739  0.98967881  1
  Nb  Nb9  1  0.85095270  0.74714083  0.66738563  1
  Nb  Nb10  1  0.66019471  0.49827425  0.32805873  1
  Nb  Nb11  1  0.98062402  0.49893270  0.01170153  1
  N  N12  1  0.15596731  0.26441640  0.82670606  1
  N  N13  1  0.50150629  0.24345962  0.49609532  1
  N  N14  1  0.33380602  -0.00309777  0.17615288  1
  N  N15  1  0.17651632  0.74018573  0.84186829  1
  N  N16  1  0.51460575  0.76351877  0.49759816  1
  N  N17  1  0.32162656  0.49842416  0.16895080  1
  N  N18  1  0.84074345  0.24046131  0.17457779  1
  N  N19  1  0.66517241  0.00725529  0.82335152  1
  N  N20  1  0.98594150  0.01144520  0.49472102  1
  N  N21  1  0.83464140  0.76231885  0.17389967  1
  N  N22  1  0.66837363  0.48851767  0.82654537  1
  N  N23  1  1.00115560  0.48531442  0.49990374  1
