# generated using pymatgen
data_Zr3TiN4
_symmetry_space_group_name_H-M   'P 1'
_cell_length_a   5.57526926
_cell_length_b   6.39157863
_cell_length_c   7.85420522
_cell_angle_alpha   89.98443400
_cell_angle_beta   89.89447839
_cell_angle_gamma   90.01154341
_symmetry_Int_Tables_number   1
_chemical_formula_structural   Zr3TiN4
_chemical_formula_sum   'Zr9 Ti3 N12'
_cell_volume   279.88232020
_cell_formula_units_Z   3
loop_
 _symmetry_equiv_pos_site_id
 _symmetry_equiv_pos_as_xyz
  1  'x, y, z'
loop_
 _atom_site_type_symbol
 _atom_site_label
 _atom_site_symmetry_multiplicity
 _atom_site_fract_x
 _atom_site_fract_y
 _atom_site_fract_z
 _atom_site_occupancy
  Zr  Zr0  1  0.50049254  0.24811285  0.00407333  1
  Zr  Zr1  1  0.33362080  0.00518563  0.66047860  1
  Zr  Zr2  1  0.16569211  0.75464742  0.33453285  1
  Zr  Zr3  1  0.50118425  0.75296353  0.00323112  1
  Zr  Zr4  1  0.33349039  0.49344230  0.66217869  1
  Zr  Zr5  1  0.99796969  0.00364698  0.00183181  1
  Zr  Zr6  1  0.83403485  0.75248573  0.66219982  1
  Zr  Zr7  1  0.66816544  0.49440724  0.33718622  1
  Zr  Zr8  1  0.99786689  0.49561222  0.00076835  1
  Ti  Ti9  1  0.16170609  0.24585173  0.33552540  1
  Ti  Ti10  1  0.83622630  0.24731538  0.65984727  1
  Ti  Ti11  1  0.66884414  0.00631981  0.33733911  1
  N  N12  1  0.16074939  0.24843813  0.82854824  1
  N  N13  1  0.50371687  0.24575334  0.49558943  1
  N  N14  1  0.33492250  0.00637602  0.17495437  1
  N  N15  1  0.16826616  0.75050746  0.83197660  1
  N  N16  1  0.50275048  0.75471289  0.49541964  1
  N  N17  1  0.32943550  0.49455078  0.17270116  1
  N  N18  1  0.83531899  0.24504648  0.17543042  1
  N  N19  1  0.66926951  0.00656549  0.82832102  1
  N  N20  1  0.99517216  0.00785986  0.49598291  1
  N  N21  1  0.83044373  0.75443378  0.17309028  1
  N  N22  1  0.66865911  0.49463417  0.82900468  1
  N  N23  1  1.00104627  0.49039451  0.49832326  1
