# generated using pymatgen
data_Ti11MoN12
_symmetry_space_group_name_H-M   'P 1'
_cell_length_a   5.22289046
_cell_length_b   6.02040648
_cell_length_c   7.38343706
_cell_angle_alpha   89.99907370
_cell_angle_beta   89.81672980
_cell_angle_gamma   90.00097318
_symmetry_Int_Tables_number   1
_chemical_formula_structural   Ti11MoN12
_chemical_formula_sum   'Ti11 Mo1 N12'
_cell_volume   232.16304273
_cell_formula_units_Z   1
loop_
 _symmetry_equiv_pos_site_id
 _symmetry_equiv_pos_as_xyz
  1  'x, y, z'
loop_
 _atom_site_type_symbol
 _atom_site_label
 _atom_site_symmetry_multiplicity
 _atom_site_fract_x
 _atom_site_fract_y
 _atom_site_fract_z
 _atom_site_occupancy
  Ti  Ti0  1  0.49985885  0.24991980  0.00122087  1
  Ti  Ti1  1  0.33025983  0.00053361  0.66861120  1
  Ti  Ti2  1  0.16678186  0.74733257  0.33352791  1
  Ti  Ti3  1  0.49998930  0.75050888  0.00165177  1
  Ti  Ti4  1  0.33878646  0.50092481  0.66890421  1
  Ti  Ti5  1  0.00277111  0.00016975  0.99896767  1
  Ti  Ti6  1  0.83250516  0.75143494  0.66576282  1
  Ti  Ti7  1  0.99475846  0.50061211  0.99745505  1
  Ti  Ti8  1  0.16648947  0.25266338  0.33321120  1
  Ti  Ti9  1  0.83339490  0.25020651  0.66511860  1
  Ti  Ti10  1  0.66589849  -0.00048326  0.33368652  1
  Mo  Mo11  1  0.66886370  0.49696050  0.33324379  1
  N  N12  1  0.16666412  0.25112170  0.83346017  1
  N  N13  1  0.49588726  0.24549453  0.50315294  1
  N  N14  1  0.33455215  1.00007098  0.16885054  1
  N  N15  1  0.16666824  0.74961942  0.83341203  1
  N  N16  1  0.49668778  0.75472088  0.50291001  1
  N  N17  1  0.32517972  0.50012307  0.16229191  1
  N  N18  1  0.83661645  0.24499913  0.16322854  1
  N  N19  1  0.66678784  1.00024719  0.83357395  1
  N  N20  1  0.99875852  0.00011658  0.49806281  1
  N  N21  1  0.83659826  0.75483666  0.16397612  1
  N  N22  1  0.66677646  0.50001895  0.83342614  1
  N  N23  1  0.00871034  0.50058402  0.50487338  1
