# generated using pymatgen
data_YTi3N4
_symmetry_space_group_name_H-M   'P 1'
_cell_length_a   5.41416111
_cell_length_b   6.24471916
_cell_length_c   7.62687597
_cell_angle_alpha   89.99974715
_cell_angle_beta   90.35500871
_cell_angle_gamma   90.00372133
_symmetry_Int_Tables_number   1
_chemical_formula_structural   YTi3N4
_chemical_formula_sum   'Y3 Ti9 N12'
_cell_volume   257.85908226
_cell_formula_units_Z   3
loop_
 _symmetry_equiv_pos_site_id
 _symmetry_equiv_pos_as_xyz
  1  'x, y, z'
loop_
 _atom_site_type_symbol
 _atom_site_label
 _atom_site_symmetry_multiplicity
 _atom_site_fract_x
 _atom_site_fract_y
 _atom_site_fract_z
 _atom_site_occupancy
  Y  Y0  1  0.32438998  -0.00001122  0.67036403  1
  Y  Y1  1  0.33697310  0.49997871  0.67166028  1
  Y  Y2  1  0.67236887  0.49999050  0.32245198  1
  Ti  Ti3  1  0.50386347  0.24299821  0.00551281  1
  Ti  Ti4  1  0.16518703  0.76070898  0.32087128  1
  Ti  Ti5  1  0.50378274  0.75689148  0.00554064  1
  Ti  Ti6  1  0.99677929  0.99991576  0.00315714  1
  Ti  Ti7  1  0.83384557  0.75185960  0.67148775  1
  Ti  Ti8  1  -0.00198211  0.49994424  1.00163298  1
  Ti  Ti9  1  0.16537442  0.23917064  0.32081923  1
  Ti  Ti10  1  0.83382651  0.24824723  0.67147805  1
  Ti  Ti11  1  0.67125987  -0.00004018  0.32938719  1
  N  N12  1  0.14878008  0.25356988  0.85387818  1
  N  N13  1  0.51075088  0.23328748  0.48631017  1
  N  N14  1  0.33668630  1.00002051  0.16483790  1
  N  N15  1  0.14876264  0.74643159  0.85392041  1
  N  N16  1  0.51069686  0.76669565  0.48629089  1
  N  N17  1  0.31001050  0.49992678  0.16009412  1
  N  N18  1  0.84254974  0.23370160  0.15760582  1
  N  N19  1  0.68015962  1.00002028  0.84205055  1
  N  N20  1  0.98410689  1.00007442  0.48795069  1
  N  N21  1  0.84246985  0.76624311  0.15758772  1
  N  N22  1  0.68061252  0.50001601  0.84904451  1
  N  N23  1  0.99589548  0.50014469  0.50691703  1
