# generated using pymatgen
data_YTi11N12
_symmetry_space_group_name_H-M   'P 1'
_cell_length_a   5.26840702
_cell_length_b   6.08739344
_cell_length_c   7.42955714
_cell_angle_alpha   90.00253962
_cell_angle_beta   89.99635343
_cell_angle_gamma   90.00517133
_symmetry_Int_Tables_number   1
_chemical_formula_structural   YTi11N12
_chemical_formula_sum   'Y1 Ti11 N12'
_cell_volume   238.27233235
_cell_formula_units_Z   1
loop_
 _symmetry_equiv_pos_site_id
 _symmetry_equiv_pos_as_xyz
  1  'x, y, z'
loop_
 _atom_site_type_symbol
 _atom_site_label
 _atom_site_symmetry_multiplicity
 _atom_site_fract_x
 _atom_site_fract_y
 _atom_site_fract_z
 _atom_site_occupancy
  Y  Y0  1  0.66682389  0.50006150  0.33306071  1
  Ti  Ti1  1  0.49785699  0.24687139  0.99328864  1
  Ti  Ti2  1  0.32972214  0.99994925  0.66794656  1
  Ti  Ti3  1  0.16667947  0.76010982  0.33323120  1
  Ti  Ti4  1  0.49752834  0.75288740  0.99332669  1
  Ti  Ti5  1  0.33072996  0.49989326  0.67194001  1
  Ti  Ti6  1  0.00396525  0.00006457  0.99870502  1
  Ti  Ti7  1  0.83591839  0.75292020  0.67323049  1
  Ti  Ti8  1  0.00332021  0.50013415  0.99437026  1
  Ti  Ti9  1  0.16643704  0.23975568  0.33360652  1
  Ti  Ti10  1  0.83591583  0.24721493  0.67363194  1
  Ti  Ti11  1  0.66641854  1.00003117  0.33352803  1
  N  N12  1  0.16701847  0.25101981  0.83335671  1
  N  N13  1  0.49078974  0.23573343  0.50987643  1
  N  N14  1  0.33789873  0.99998514  0.16607830  1
  N  N15  1  0.16690524  0.74888367  0.83320587  1
  N  N16  1  0.49064051  0.76411295  0.50987094  1
  N  N17  1  0.31232738  0.49994685  0.15655913  1
  N  N18  1  0.84267994  0.23548668  0.15684016  1
  N  N19  1  0.66674146  -0.00021213  0.83338079  1
  N  N20  1  0.99533174  0.99973667  0.50081286  1
  N  N21  1  0.84271581  0.76440542  0.15673640  1
  N  N22  1  0.66672344  0.50014550  0.83343699  1
  N  N23  1  0.02072197  0.49953576  0.51040992  1
