# generated using pymatgen
data_Ti3ReN4
_symmetry_space_group_name_H-M   'P 1'
_cell_length_a   5.24748903
_cell_length_b   6.03877859
_cell_length_c   7.38706725
_cell_angle_alpha   89.98887689
_cell_angle_beta   90.34776299
_cell_angle_gamma   90.01312896
_symmetry_Int_Tables_number   1
_chemical_formula_structural   Ti3ReN4
_chemical_formula_sum   'Ti9 Re3 N12'
_cell_volume   234.08019999
_cell_formula_units_Z   3
loop_
 _symmetry_equiv_pos_site_id
 _symmetry_equiv_pos_as_xyz
  1  'x, y, z'
loop_
 _atom_site_type_symbol
 _atom_site_label
 _atom_site_symmetry_multiplicity
 _atom_site_fract_x
 _atom_site_fract_y
 _atom_site_fract_z
 _atom_site_occupancy
  Ti  Ti0  1  0.49708621  0.24886578  0.00049407  1
  Ti  Ti1  1  0.16306652  0.74929027  0.33716782  1
  Ti  Ti2  1  0.49721505  0.75147555  0.00043315  1
  Ti  Ti3  1  0.00649798  -0.00030313  0.99572086  1
  Ti  Ti4  1  0.82261838  0.74884621  0.66349855  1
  Ti  Ti5  1  0.99852290  0.50035719  0.00737800  1
  Ti  Ti6  1  0.16206429  0.25065764  0.33695456  1
  Ti  Ti7  1  0.82201593  0.25121939  0.66338334  1
  Ti  Ti8  1  0.66790243  0.99992972  0.32649323  1
  Re  Re9  1  0.31871171  1.00176699  0.69528586  1
  Re  Re10  1  0.37164313  0.49943463  0.65174334  1
  Re  Re11  1  0.67570719  0.49853077  0.32364556  1
  N  N12  1  0.16324769  0.25996104  0.83491858  1
  N  N13  1  0.49755544  0.23878262  0.49553589  1
  N  N14  1  0.33246396  0.99994111  0.16757835  1
  N  N15  1  0.16421213  0.74055311  0.83431808  1
  N  N16  1  0.49864718  0.75945201  0.49463340  1
  N  N17  1  0.32877626  0.50007513  0.16687951  1
  N  N18  1  0.83683379  0.24590951  0.16268556  1
  N  N19  1  0.66904939  -0.00005250  0.83696460  1
  N  N20  1  0.99653853  0.99994430  0.50021930  1
  N  N21  1  0.83678592  0.75357416  0.16307935  1
  N  N22  1  0.66974290  0.50020762  0.83779338  1
  N  N23  1  1.00460909  0.50026581  0.50378067  1
