# generated using pymatgen
data_Ti11NbN12
_symmetry_space_group_name_H-M   'P 1'
_cell_length_a   5.23507844
_cell_length_b   6.02088636
_cell_length_c   7.39586661
_cell_angle_alpha   89.99808838
_cell_angle_beta   89.84186837
_cell_angle_gamma   90.00032337
_symmetry_Int_Tables_number   1
_chemical_formula_structural   Ti11NbN12
_chemical_formula_sum   'Ti11 Nb1 N12'
_cell_volume   233.11544012
_cell_formula_units_Z   1
loop_
 _symmetry_equiv_pos_site_id
 _symmetry_equiv_pos_as_xyz
  1  'x, y, z'
loop_
 _atom_site_type_symbol
 _atom_site_label
 _atom_site_symmetry_multiplicity
 _atom_site_fract_x
 _atom_site_fract_y
 _atom_site_fract_z
 _atom_site_occupancy
  Ti  Ti0  1  0.49900675  0.24899072  0.99888280  1
  Ti  Ti1  1  0.33252844  0.00005840  0.66593207  1
  Ti  Ti2  1  0.16626607  0.74971644  0.33321663  1
  Ti  Ti3  1  0.49969024  0.75003221  0.99909854  1
  Ti  Ti4  1  0.33302280  0.50010192  0.66798869  1
  Ti  Ti5  1  0.00060557  -0.00018058  0.00082095  1
  Ti  Ti6  1  0.83426550  0.75057510  0.66759382  1
  Ti  Ti7  1  0.99996940  0.50034687  0.99831653  1
  Ti  Ti8  1  0.16689684  0.25056977  0.33370112  1
  Ti  Ti9  1  0.83361305  0.25000426  0.66768887  1
  Ti  Ti10  1  0.66646086  0.00010643  0.33334451  1
  Nb  Nb11  1  0.66648357  0.49957041  0.33320684  1
  N  N12  1  0.16676578  0.24802926  0.83324138  1
  N  N13  1  0.49608689  0.24503218  0.50473850  1
  N  N14  1  0.33376699  0.99973443  0.16649962  1
  N  N15  1  0.16663414  0.75199176  0.83363159  1
  N  N16  1  0.49604469  0.75508802  0.50410060  1
  N  N17  1  0.32503793  0.49987726  0.16227324  1
  N  N18  1  0.83702393  0.24505954  0.16214111  1
  N  N19  1  0.66659547  0.00016342  0.83370201  1
  N  N20  1  0.99993067  1.00065822  0.49996905  1
  N  N21  1  0.83671614  0.75490414  0.16231685  1
  N  N22  1  0.66670872  0.50007625  0.83367388  1
  N  N23  1  0.00828481  0.49995437  0.50434793  1
