# generated using pymatgen
data_Ti11OsN12
_symmetry_space_group_name_H-M   'P 1'
_cell_length_a   5.21651275
_cell_length_b   6.01494579
_cell_length_c   7.38524283
_cell_angle_alpha   90.00337165
_cell_angle_beta   90.14442432
_cell_angle_gamma   89.99412710
_symmetry_Int_Tables_number   1
_chemical_formula_structural   Ti11OsN12
_chemical_formula_sum   'Ti11 Os1 N12'
_cell_volume   231.72633244
_cell_formula_units_Z   1
loop_
 _symmetry_equiv_pos_site_id
 _symmetry_equiv_pos_as_xyz
  1  'x, y, z'
loop_
 _atom_site_type_symbol
 _atom_site_label
 _atom_site_symmetry_multiplicity
 _atom_site_fract_x
 _atom_site_fract_y
 _atom_site_fract_z
 _atom_site_occupancy
  Ti  Ti0  1  0.50417404  0.25189136  0.00631438  1
  Ti  Ti1  1  0.32778512  0.00019750  0.67328159  1
  Ti  Ti2  1  0.16656363  0.74496893  0.33344854  1
  Ti  Ti3  1  0.50422968  0.74753387  0.00674283  1
  Ti  Ti4  1  0.34093152  0.50032814  0.66720664  1
  Ti  Ti5  1  0.00487443  -0.00055005  0.99356948  1
  Ti  Ti6  1  0.82837026  0.74817782  0.66060144  1
  Ti  Ti7  1  0.99263716  0.49990416  0.99904128  1
  Ti  Ti8  1  0.16689371  0.25578599  0.33309372  1
  Ti  Ti9  1  0.82898890  0.25228814  0.65993893  1
  Ti  Ti10  1  0.66695297  1.00060316  0.33320510  1
  Os  Os11  1  0.66685172  0.49804395  0.33422755  1
  N  N12  1  0.16657807  0.25283041  0.83319066  1
  N  N13  1  0.49304853  0.24213664  0.50443281  1
  N  N14  1  0.33441908  0.99984304  0.16865018  1
  N  N15  1  0.16658580  0.74722779  0.83335041  1
  N  N16  1  0.49390083  0.75803071  0.50401882  1
  N  N17  1  0.32427340  0.50038550  0.16198440  1
  N  N18  1  0.84025758  0.24226147  0.16191121  1
  N  N19  1  0.66606223  0.99978483  0.83357516  1
  N  N20  1  0.99878654  1.00033603  0.49803960  1
  N  N21  1  0.83966335  0.75691934  0.16288023  1
  N  N22  1  0.66637310  0.49973920  0.83352139  1
  N  N23  1  0.00956692  0.50054536  0.50510979  1
