# generated using pymatgen
data_Ti3OsN4
_symmetry_space_group_name_H-M   'P 1'
_cell_length_a   5.23730052
_cell_length_b   6.08622537
_cell_length_c   7.46713833
_cell_angle_alpha   90.31331970
_cell_angle_beta   91.44962501
_cell_angle_gamma   89.73532836
_symmetry_Int_Tables_number   1
_chemical_formula_structural   Ti3OsN4
_chemical_formula_sum   'Ti9 Os3 N12'
_cell_volume   237.93583127
_cell_formula_units_Z   3
loop_
 _symmetry_equiv_pos_site_id
 _symmetry_equiv_pos_as_xyz
  1  'x, y, z'
loop_
 _atom_site_type_symbol
 _atom_site_label
 _atom_site_symmetry_multiplicity
 _atom_site_fract_x
 _atom_site_fract_y
 _atom_site_fract_z
 _atom_site_occupancy
  Ti  Ti0  1  0.48605685  0.24379186  -0.00241464  1
  Ti  Ti1  1  0.17502481  0.74920567  0.34306439  1
  Ti  Ti2  1  0.49382651  0.74660708  -0.00348814  1
  Ti  Ti3  1  0.00253133  0.98993477  1.00457852  1
  Ti  Ti4  1  0.83624243  0.75123558  0.66221121  1
  Ti  Ti5  1  0.97236926  0.48866862  0.01019858  1
  Ti  Ti6  1  0.18001997  0.25282020  0.34882216  1
  Ti  Ti7  1  0.83603742  0.24819312  0.66678979  1
  Ti  Ti8  1  0.66857087  0.00988590  0.33227980  1
  Os  Os9  1  0.30077365  -0.00470654  0.70496197  1
  Os  Os10  1  0.35938890  0.57880326  0.66049969  1
  Os  Os11  1  0.65520768  0.48628991  0.28333409  1
  N  N12  1  0.14173469  0.24391114  0.85204150  1
  N  N13  1  0.52563020  0.26615575  0.48265051  1
  N  N14  1  0.33499696  0.99904670  0.17191134  1
  N  N15  1  0.14565742  0.73267739  0.84933736  1
  N  N16  1  0.54152528  0.72715882  0.46122326  1
  N  N17  1  0.30433627  0.49882155  0.16053743  1
  N  N18  1  0.83971773  0.22892070  0.16311581  1
  N  N19  1  0.66708833  0.00314182  0.83506130  1
  N  N20  1  1.00140235  0.00453334  0.50323192  1
  N  N21  1  0.83551358  0.75638191  0.16626981  1
  N  N22  1  0.66136673  0.49791891  0.82858974  1
  N  N23  1  1.03580119  0.50116968  0.51664325  1
