# generated using pymatgen
data_Ti3NbN4
_symmetry_space_group_name_H-M   'P 1'
_cell_length_a   5.28072881
_cell_length_b   6.08272599
_cell_length_c   7.46410485
_cell_angle_alpha   90.00147770
_cell_angle_beta   90.08044671
_cell_angle_gamma   89.99915296
_symmetry_Int_Tables_number   1
_chemical_formula_structural   Ti3NbN4
_chemical_formula_sum   'Ti9 Nb3 N12'
_cell_volume   239.75596480
_cell_formula_units_Z   3
loop_
 _symmetry_equiv_pos_site_id
 _symmetry_equiv_pos_as_xyz
  1  'x, y, z'
loop_
 _atom_site_type_symbol
 _atom_site_label
 _atom_site_symmetry_multiplicity
 _atom_site_fract_x
 _atom_site_fract_y
 _atom_site_fract_z
 _atom_site_occupancy
  Ti  Ti0  1  0.49871305  0.24999008  1.00058214  1
  Ti  Ti1  1  0.16644440  0.75052962  0.33070650  1
  Ti  Ti2  1  0.49945215  0.75011418  0.00096424  1
  Ti  Ti3  1  0.99838987  0.00030866  0.00346914  1
  Ti  Ti4  1  0.83329695  0.75063817  0.66814535  1
  Ti  Ti5  1  0.99890736  0.50051520  1.00109789  1
  Ti  Ti6  1  0.16638380  0.25033721  0.33090728  1
  Ti  Ti7  1  0.83370618  0.24876501  0.66865124  1
  Ti  Ti8  1  0.66936245  0.00014018  0.32901802  1
  Nb  Nb9  1  0.32832400  0.99873529  0.66963086  1
  Nb  Nb10  1  0.33855629  0.49851319  0.66674186  1
  Nb  Nb11  1  0.66788840  0.50019651  0.33100404  1
  N  N12  1  0.15936832  0.24957543  0.84157666  1
  N  N13  1  0.50393372  0.24265980  0.49559497  1
  N  N14  1  0.33396586  1.00024764  0.16657831  1
  N  N15  1  0.15971732  0.74978118  0.84157142  1
  N  N16  1  0.50364378  0.75636005  0.49549026  1
  N  N17  1  0.32604705  0.49998089  0.16284988  1
  N  N18  1  0.83555577  0.24700177  0.16285514  1
  N  N19  1  0.67193625  -0.00007437  0.83765759  1
  N  N20  1  0.99268550  0.00014042  0.49584629  1
  N  N21  1  0.83615415  0.75364266  0.16296823  1
  N  N22  1  0.67277466  0.50015658  0.83732456  1
  N  N23  1  0.00163151  0.50012750  0.50065427  1
