# generated using pymatgen
data_Ti11MnN12
_symmetry_space_group_name_H-M   'P 1'
_cell_length_a   5.20485768
_cell_length_b   6.00279572
_cell_length_c   7.36126480
_cell_angle_alpha   90.00708725
_cell_angle_beta   90.05677461
_cell_angle_gamma   89.99536708
_symmetry_Int_Tables_number   1
_chemical_formula_structural   Ti11MnN12
_chemical_formula_sum   'Ti11 Mn1 N12'
_cell_volume   229.99301429
_cell_formula_units_Z   1
loop_
 _symmetry_equiv_pos_site_id
 _symmetry_equiv_pos_as_xyz
  1  'x, y, z'
loop_
 _atom_site_type_symbol
 _atom_site_label
 _atom_site_symmetry_multiplicity
 _atom_site_fract_x
 _atom_site_fract_y
 _atom_site_fract_z
 _atom_site_occupancy
  Ti  Ti0  1  0.50026201  0.25158264  0.00157331  1
  Ti  Ti1  1  0.33231377  -0.00011028  0.66645522  1
  Ti  Ti2  1  0.16698910  0.74910040  0.33316770  1
  Ti  Ti3  1  0.50090453  0.74864227  0.00164340  1
  Ti  Ti4  1  0.33431436  0.49994827  0.66622192  1
  Ti  Ti5  1  0.00154844  1.00010611  1.00023877  1
  Ti  Ti6  1  0.83285673  0.74869892  0.66505861  1
  Ti  Ti7  1  0.99911195  0.49995959  1.00023445  1
  Ti  Ti8  1  0.16689090  0.25064239  0.33337882  1
  Ti  Ti9  1  0.83265157  0.25128422  0.66524541  1
  Ti  Ti10  1  0.66652419  0.00000803  0.33343666  1
  Mn  Mn11  1  0.66642697  0.50019741  0.33327834  1
  N  N12  1  0.16721037  0.25032415  0.83346594  1
  N  N13  1  0.50011502  0.25048799  0.49921236  1
  N  N14  1  0.33261575  -0.00027471  0.16730746  1
  N  N15  1  0.16653992  0.74984696  0.83326928  1
  N  N16  1  0.50026516  0.74943151  0.49847232  1
  N  N17  1  0.33132156  0.50014133  0.16499872  1
  N  N18  1  0.83279405  0.25080209  0.16776593  1
  N  N19  1  0.66633949  0.00053675  0.83284015  1
  N  N20  1  -0.00001184  -0.00045502  0.49912463  1
  N  N21  1  0.83256077  0.74995621  0.16741308  1
  N  N22  1  0.66681611  0.49979780  0.83329741  1
  N  N23  1  1.00270536  0.50012627  0.50188487  1
