# generated using pymatgen
data_TiMn3N4
_symmetry_space_group_name_H-M   'P 1'
_cell_length_a   5.12849086
_cell_length_b   5.84569463
_cell_length_c   7.20671584
_cell_angle_alpha   89.83756747
_cell_angle_beta   89.29546194
_cell_angle_gamma   90.04558725
_symmetry_Int_Tables_number   1
_chemical_formula_structural   TiMn3N4
_chemical_formula_sum   'Ti3 Mn9 N12'
_cell_volume   216.03712046
_cell_formula_units_Z   3
loop_
 _symmetry_equiv_pos_site_id
 _symmetry_equiv_pos_as_xyz
  1  'x, y, z'
loop_
 _atom_site_type_symbol
 _atom_site_label
 _atom_site_symmetry_multiplicity
 _atom_site_fract_x
 _atom_site_fract_y
 _atom_site_fract_z
 _atom_site_occupancy
  Ti  Ti0  1  0.16526100  0.24951430  0.33090401  1
  Ti  Ti1  1  0.83944800  0.25643626  0.66839808  1
  Ti  Ti2  1  0.66866925  0.99543627  0.33153896  1
  Mn  Mn3  1  0.50058373  0.24659713  0.99934438  1
  Mn  Mn4  1  0.33504718  0.00131898  0.66806475  1
  Mn  Mn5  1  0.16904266  0.74951712  0.33470759  1
  Mn  Mn6  1  0.49343693  0.75019494  -0.00118788  1
  Mn  Mn7  1  0.33894158  0.50127433  0.67111094  1
  Mn  Mn8  1  -0.00544693  0.99684073  0.99885250  1
  Mn  Mn9  1  0.83607949  0.75155997  0.66531238  1
  Mn  Mn10  1  0.66182194  0.50113014  0.33111009  1
  Mn  Mn11  1  0.99817216  0.50077966  0.99960192  1
  N  N12  1  0.17678651  0.25009547  0.83531452  1
  N  N13  1  0.50296064  0.25453852  0.49874312  1
  N  N14  1  0.33068105  0.99115500  0.16681738  1
  N  N15  1  0.16833538  0.75130814  0.83884622  1
  N  N16  1  0.49600235  0.74643136  0.50692856  1
  N  N17  1  0.32400372  0.50445844  0.16123296  1
  N  N18  1  0.83169441  0.24967054  0.15970127  1
  N  N19  1  0.66601199  0.99561182  0.83327755  1
  N  N20  1  1.00132940  0.99732546  0.50001693  1
  N  N21  1  0.82270524  0.74375917  0.16203579  1
  N  N22  1  0.67659385  0.50857009  0.83947955  1
  N  N23  1  1.00404394  0.50760076  0.50052602  1
