# generated using pymatgen
data_Ti3CoN4
_symmetry_space_group_name_H-M   'P 1'
_cell_length_a   5.16193159
_cell_length_b   5.93672198
_cell_length_c   7.26082903
_cell_angle_alpha   90.02747113
_cell_angle_beta   89.98263388
_cell_angle_gamma   89.97947051
_symmetry_Int_Tables_number   1
_chemical_formula_structural   Ti3CoN4
_chemical_formula_sum   'Ti9 Co3 N12'
_cell_volume   222.50771245
_cell_formula_units_Z   3
loop_
 _symmetry_equiv_pos_site_id
 _symmetry_equiv_pos_as_xyz
  1  'x, y, z'
loop_
 _atom_site_type_symbol
 _atom_site_label
 _atom_site_symmetry_multiplicity
 _atom_site_fract_x
 _atom_site_fract_y
 _atom_site_fract_z
 _atom_site_occupancy
  Ti  Ti0  1  0.49415543  0.25219532  0.99674411  1
  Ti  Ti1  1  0.17597700  0.74461214  0.34353399  1
  Ti  Ti2  1  0.49434882  0.74757788  0.99676383  1
  Ti  Ti3  1  -0.00089807  0.99943465  0.99980151  1
  Ti  Ti4  1  0.82735230  0.74793635  0.65978341  1
  Ti  Ti5  1  0.99059985  0.49935099  -0.00174149  1
  Ti  Ti6  1  0.17606056  0.25549859  0.34349331  1
  Ti  Ti7  1  0.82728099  0.25177043  0.65984456  1
  Ti  Ti8  1  0.66647905  -0.00004574  0.33529320  1
  Co  Co9  1  0.32522622  1.00004783  0.69202360  1
  Co  Co10  1  0.32758827  0.50396249  0.67785739  1
  Co  Co11  1  0.67871572  0.49833801  0.32723961  1
  N  N12  1  0.16190435  0.24780254  0.83510621  1
  N  N13  1  0.51795656  0.26302858  0.48292837  1
  N  N14  1  0.33294960  0.99990750  0.16811584  1
  N  N15  1  0.16274537  0.75036587  0.83422188  1
  N  N16  1  0.51780610  0.73767594  0.48312074  1
  N  N17  1  0.31343377  0.50004560  0.16054035  1
  N  N18  1  0.83405157  0.24971366  0.16541717  1
  N  N19  1  0.66266598  0.99986751  0.83199562  1
  N  N20  1  0.99864413  0.00003333  0.49969425  1
  N  N21  1  0.83420573  0.74970071  0.16521249  1
  N  N22  1  0.65550107  0.49992863  0.82923783  1
  N  N23  1  0.02431305  0.49996419  0.51311818  1
