# generated using pymatgen
data_Ti11FeN12
_symmetry_space_group_name_H-M   'P 1'
_cell_length_a   5.20847733
_cell_length_b   6.00186087
_cell_length_c   7.35522661
_cell_angle_alpha   89.99961503
_cell_angle_beta   89.93791473
_cell_angle_gamma   89.99838644
_symmetry_Int_Tables_number   1
_chemical_formula_structural   Ti11FeN12
_chemical_formula_sum   'Ti11 Fe1 N12'
_cell_volume   229.92834006
_cell_formula_units_Z   1
loop_
 _symmetry_equiv_pos_site_id
 _symmetry_equiv_pos_as_xyz
  1  'x, y, z'
loop_
 _atom_site_type_symbol
 _atom_site_label
 _atom_site_symmetry_multiplicity
 _atom_site_fract_x
 _atom_site_fract_y
 _atom_site_fract_z
 _atom_site_occupancy
  Ti  Ti0  1  0.50150932  0.25166313  0.00286600  1
  Ti  Ti1  1  0.33210685  1.00021413  0.66947575  1
  Ti  Ti2  1  0.16644941  0.74747558  0.33333608  1
  Ti  Ti3  1  0.50134083  0.74786191  0.00287199  1
  Ti  Ti4  1  0.33600480  0.50009587  0.66554807  1
  Ti  Ti5  1  0.00133149  -0.00004484  0.99731804  1
  Ti  Ti6  1  0.83236522  0.74817168  0.66376732  1
  Ti  Ti7  1  0.99737746  0.49983978  1.00136966  1
  Ti  Ti8  1  0.16628294  0.25248055  0.33315790  1
  Ti  Ti9  1  0.83246095  0.25179296  0.66363467  1
  Ti  Ti10  1  0.66654577  1.00004011  0.33335329  1
  Fe  Fe11  1  0.66702955  0.50025280  0.33324993  1
  N  N12  1  0.16633828  0.25099087  0.83320228  1
  N  N13  1  0.49756698  0.24475222  0.50335511  1
  N  N14  1  0.33390314  0.99993753  0.16716711  1
  N  N15  1  0.16643386  0.74877832  0.83332847  1
  N  N16  1  0.49737707  0.75547719  0.50356847  1
  N  N17  1  0.32510763  0.49985930  0.16246501  1
  N  N18  1  0.83618166  0.24423287  0.16342714  1
  N  N19  1  0.66711081  -0.00000925  0.83311289  1
  N  N20  1  -0.00065982  0.00004478  0.49924094  1
  N  N21  1  0.83595734  0.75525810  0.16348786  1
  N  N22  1  0.66686107  0.49996022  0.83319678  1
  N  N23  1  1.00873778  0.50015387  0.50425280  1
