# generated using pymatgen
data_Ti3MnN4
_symmetry_space_group_name_H-M   'P 1'
_cell_length_a   5.18487155
_cell_length_b   5.98242800
_cell_length_c   7.34538165
_cell_angle_alpha   89.99965251
_cell_angle_beta   90.19522432
_cell_angle_gamma   90.00227608
_symmetry_Int_Tables_number   1
_chemical_formula_structural   Ti3MnN4
_chemical_formula_sum   'Ti9 Mn3 N12'
_cell_volume   227.83861212
_cell_formula_units_Z   3
loop_
 _symmetry_equiv_pos_site_id
 _symmetry_equiv_pos_as_xyz
  1  'x, y, z'
loop_
 _atom_site_type_symbol
 _atom_site_label
 _atom_site_symmetry_multiplicity
 _atom_site_fract_x
 _atom_site_fract_y
 _atom_site_fract_z
 _atom_site_occupancy
  Ti  Ti0  1  0.49721586  0.25041665  0.99903832  1
  Ti  Ti1  1  0.17186151  0.74647810  0.33645145  1
  Ti  Ti2  1  0.49719685  0.74968603  0.99903059  1
  Ti  Ti3  1  -0.00246525  1.00001429  0.99900798  1
  Ti  Ti4  1  0.83126691  0.74916859  0.66550444  1
  Ti  Ti5  1  0.99635576  0.50001014  -0.00004580  1
  Ti  Ti6  1  0.17170822  0.25332406  0.33641850  1
  Ti  Ti7  1  0.83119393  0.25100928  0.66549890  1
  Ti  Ti8  1  0.66975472  0.99975629  0.33389249  1
  Mn  Mn9  1  0.33395838  0.00026311  0.66473682  1
  Mn  Mn10  1  0.33001227  0.50025950  0.67017422  1
  Mn  Mn11  1  0.67195889  0.49977874  0.33204338  1
  N  N12  1  0.16027046  0.24857169  0.83658983  1
  N  N13  1  0.50829613  0.25810868  0.49331158  1
  N  N14  1  0.33389253  0.99996778  0.16726372  1
  N  N15  1  0.16030649  0.75166009  0.83650723  1
  N  N16  1  0.50835084  0.74160671  0.49332273  1
  N  N17  1  0.32597914  0.50002097  0.16221526  1
  N  N18  1  0.83117842  0.25248725  0.17008217  1
  N  N19  1  0.65953419  1.00004688  0.83053755  1
  N  N20  1  0.00622318  0.00003638  0.50189655  1
  N  N21  1  0.83120876  0.74725367  0.17007724  1
  N  N22  1  0.65787561  0.50000721  0.83003638  1
  N  N23  1  0.01525845  0.50000739  0.50730955  1
