# generated using pymatgen
data_Ti11CoN12
_symmetry_space_group_name_H-M   'P 1'
_cell_length_a   5.19773412
_cell_length_b   6.00184115
_cell_length_c   7.34822521
_cell_angle_alpha   89.99807317
_cell_angle_beta   90.09075662
_cell_angle_gamma   89.99921063
_symmetry_Int_Tables_number   1
_chemical_formula_structural   Ti11CoN12
_chemical_formula_sum   'Ti11 Co1 N12'
_cell_volume   229.23475908
_cell_formula_units_Z   1
loop_
 _symmetry_equiv_pos_site_id
 _symmetry_equiv_pos_as_xyz
  1  'x, y, z'
loop_
 _atom_site_type_symbol
 _atom_site_label
 _atom_site_symmetry_multiplicity
 _atom_site_fract_x
 _atom_site_fract_y
 _atom_site_fract_z
 _atom_site_occupancy
  Ti  Ti0  1  0.50418380  0.25225827  0.00576163  1
  Ti  Ti1  1  0.33076192  1.00019266  0.66802231  1
  Ti  Ti2  1  0.16661525  0.74544316  0.33339111  1
  Ti  Ti3  1  0.50373590  0.74791856  0.00614205  1
  Ti  Ti4  1  0.33906603  0.50006438  0.66436792  1
  Ti  Ti5  1  0.00275106  0.00012010  0.99834605  1
  Ti  Ti6  1  0.82949545  0.74782379  0.66062938  1
  Ti  Ti7  1  0.99418250  0.50031861  1.00215378  1
  Ti  Ti8  1  0.16619135  0.25476572  0.33326457  1
  Ti  Ti9  1  0.82927098  0.25287676  0.66048714  1
  Ti  Ti10  1  0.66650038  0.99992511  0.33335418  1
  Co  Co11  1  0.66544802  0.49896552  0.33312186  1
  N  N12  1  0.16646199  0.25109755  0.83322540  1
  N  N13  1  0.49673194  0.24604878  0.50196284  1
  N  N14  1  0.33364434  1.00005592  0.16806061  1
  N  N15  1  0.16670012  0.74869689  0.83326396  1
  N  N16  1  0.49666011  0.75397723  0.50239559  1
  N  N17  1  0.32475938  0.49986272  0.16237951  1
  N  N18  1  0.83617088  0.24569509  0.16431369  1
  N  N19  1  0.66681623  -0.00036113  0.83333680  1
  N  N20  1  0.99951445  1.00002116  0.49850664  1
  N  N21  1  0.83678155  0.75387309  0.16429880  1
  N  N22  1  0.66678253  0.50016929  0.83312763  1
  N  N23  1  0.00828708  0.50017196  0.50404445  1
