# generated using pymatgen
data_TiNi3N4
_symmetry_space_group_name_H-M   'P 1'
_cell_length_a   5.14946135
_cell_length_b   5.83059501
_cell_length_c   7.20552605
_cell_angle_alpha   89.49275813
_cell_angle_beta   88.47668786
_cell_angle_gamma   90.45431713
_symmetry_Int_Tables_number   1
_chemical_formula_structural   TiNi3N4
_chemical_formula_sum   'Ti3 Ni9 N12'
_cell_volume   216.24962103
_cell_formula_units_Z   3
loop_
 _symmetry_equiv_pos_site_id
 _symmetry_equiv_pos_as_xyz
  1  'x, y, z'
loop_
 _atom_site_type_symbol
 _atom_site_label
 _atom_site_symmetry_multiplicity
 _atom_site_fract_x
 _atom_site_fract_y
 _atom_site_fract_z
 _atom_site_occupancy
  Ti  Ti0  1  0.17435720  0.27398910  0.33495978  1
  Ti  Ti1  1  0.82346296  0.24421116  0.67859761  1
  Ti  Ti2  1  0.68539104  0.96949703  0.32510583  1
  Ni  Ni3  1  0.47264208  0.24098315  -0.02001526  1
  Ni  Ni4  1  0.33251074  0.98338822  0.63110112  1
  Ni  Ni5  1  0.19433466  0.73303853  0.30730726  1
  Ni  Ni6  1  0.46319621  0.76525204  0.98442724  1
  Ni  Ni7  1  0.33578870  0.49141406  0.68274213  1
  Ni  Ni8  1  0.03886778  0.01992631  0.02292480  1
  Ni  Ni9  1  0.85404124  0.76311365  0.68384468  1
  Ni  Ni10  1  0.68087317  0.48153393  0.34773000  1
  Ni  Ni11  1  -0.04361407  0.50804810  0.99613705  1
  N  N12  1  0.12125452  0.27373097  0.85802441  1
  N  N13  1  0.49209587  0.25780986  0.51069319  1
  N  N14  1  0.36065620  1.00513626  0.17364478  1
  N  N15  1  0.14675664  0.71019519  0.83710942  1
  N  N16  1  0.48821006  0.72549735  0.47329018  1
  N  N17  1  0.40319928  0.49251677  0.18032750  1
  N  N18  1  0.85458027  0.26609006  0.17503852  1
  N  N19  1  0.60631960  0.99103138  0.80262244  1
  N  N20  1  0.99206915  0.01566127  0.51195929  1
  N  N21  1  0.88714269  0.76861360  0.15935950  1
  N  N22  1  0.64299661  0.51227949  0.84302867  1
  N  N23  1  0.99433234  0.50828868  0.49895925  1
