# generated using pymatgen
data_TaTiNbAuC4
_symmetry_space_group_name_H-M   'P 1'
_cell_length_a   6.54531832
_cell_length_b   6.74091094
_cell_length_c   8.87348447
_cell_angle_alpha   90.55800170
_cell_angle_beta   89.05966294
_cell_angle_gamma   100.48017429
_symmetry_Int_Tables_number   1
_chemical_formula_structural   TaTiNbAuC4
_chemical_formula_sum   'Ta4 Ti4 Nb4 Au4 C16'
_cell_volume   384.91848290
_cell_formula_units_Z   4
loop_
 _symmetry_equiv_pos_site_id
 _symmetry_equiv_pos_as_xyz
  1  'x, y, z'
loop_
 _atom_site_type_symbol
 _atom_site_label
 _atom_site_symmetry_multiplicity
 _atom_site_fract_x
 _atom_site_fract_y
 _atom_site_fract_z
 _atom_site_occupancy
  Ta  Ta0  1  0.77085140  0.24708141  0.75691797  1
  Ta  Ta1  1  0.72000943  0.74877764  0.75269694  1
  Ta  Ta2  1  0.55128848  0.45261705  0.49876550  1
  Ta  Ta3  1  -0.01628232  0.00565952  1.00539264  1
  Ti  Ti4  1  0.50888387  0.97410777  0.50018490  1
  Ti  Ti5  1  0.76614487  0.23618039  0.24135175  1
  Ti  Ti6  1  0.27138865  0.25810542  0.24525867  1
  Ti  Ti7  1  0.49008323  0.99911903  0.00259114  1
  Nb  Nb8  1  0.19548576  0.79931681  0.74837013  1
  Nb  Nb9  1  0.98981807  0.01461052  0.49577993  1
  Nb  Nb10  1  0.04550749  0.48008553  0.49463554  1
  Nb  Nb11  1  0.20453913  0.79738612  0.24897261  1
  Au  Au12  1  0.25900132  0.24977635  0.74972587  1
  Au  Au13  1  0.72281638  0.75168886  0.25474757  1
  Au  Au14  1  0.50208799  0.49105742  0.00295918  1
  Au  Au15  1  0.00566261  0.50526772  0.00409770  1
  C  C16  1  0.70650305  0.76219511  0.50146789  1
  C  C17  1  0.76317060  0.24025257  0.49931122  1
  C  C18  1  0.21303280  0.78754946  0.49844804  1
  C  C19  1  0.25432959  0.26664791  0.49775088  1
  C  C20  1  0.55786154  0.45292334  0.25049451  1
  C  C21  1  0.48212505  0.01850102  0.25221808  1
  C  C22  1  0.69440377  0.77561654  -0.00093336  1
  C  C23  1  0.78779372  0.23080307  0.00137946  1
  C  C24  1  0.05506305  0.47050824  0.24676664  1
  C  C25  1  0.98599125  0.00434953  0.25090698  1
  C  C26  1  0.20485333  0.78737925  -0.00073198  1
  C  C27  1  0.29337222  0.21709690  1.00527393  1
  C  C28  1  0.53711047  0.45462788  0.75183790  1
  C  C29  1  0.51477532  0.97378771  0.74805414  1
  C  C30  1  0.97184188  0.53444630  0.74687565  1
  C  C31  1  0.98973328  1.01335669  0.75040743  1
