# generated using pymatgen
data_ZrTaTiVCdC5
_symmetry_space_group_name_H-M   'P 1'
_cell_length_a   7.08678611
_cell_length_b   7.17410725
_cell_length_c   4.49359415
_cell_angle_alpha   90.06280219
_cell_angle_beta   90.04252126
_cell_angle_gamma   89.83423525
_symmetry_Int_Tables_number   1
_chemical_formula_structural   ZrTaTiVCdC5
_chemical_formula_sum   'Zr2 Ta2 Ti2 V2 Cd2 C10'
_cell_volume   228.45929817
_cell_formula_units_Z   2
loop_
 _symmetry_equiv_pos_site_id
 _symmetry_equiv_pos_as_xyz
  1  'x, y, z'
loop_
 _atom_site_type_symbol
 _atom_site_label
 _atom_site_symmetry_multiplicity
 _atom_site_fract_x
 _atom_site_fract_y
 _atom_site_fract_z
 _atom_site_occupancy
  Zr  Zr0  1  0.89769264  0.69843078  0.50203520  1
  Zr  Zr1  1  0.79927566  0.39452990  0.99851176  1
  Ta  Ta2  1  0.11181480  0.29034443  0.49954022  1
  Ta  Ta3  1  0.98484172  1.00039316  0.00127970  1
  Ti  Ti4  1  0.49632314  0.50921495  0.49906359  1
  Ti  Ti5  1  0.40880862  0.19565242  0.99985109  1
  V  V6  1  0.68578807  0.09497541  0.49472780  1
  V  V7  1  0.59142134  0.80234898  0.02819353  1
  Cd  Cd8  1  0.29914637  0.89801856  0.50523250  1
  Cd  Cd9  1  0.20303514  0.60282668  1.00007193  1
  C  C10  1  0.31509198  0.92738461  1.00248327  1
  C  C11  1  0.51444628  0.52205215  0.99606641  1
  C  C12  1  0.42202143  0.21521318  0.49886919  1
  C  C13  1  0.11047070  0.27775995  0.99950960  1
  C  C14  1  0.97821155  0.01015632  0.50115342  1
  C  C15  1  0.69193361  0.08849675  0.99827521  1
  C  C16  1  0.60322050  0.80405473  0.47541981  1
  C  C17  1  0.20847703  0.57265733  0.49959267  1
  C  C18  1  0.88051604  0.71478656  0.00031385  1
  C  C19  1  0.80003823  0.38097169  0.49825602  1
