# generated using pymatgen
data_ZrTaTiVOsC5
_symmetry_space_group_name_H-M   'P 1'
_cell_length_a   7.06151082
_cell_length_b   7.05162494
_cell_length_c   8.77205213
_cell_angle_alpha   89.96573504
_cell_angle_beta   90.19978524
_cell_angle_gamma   90.05882451
_symmetry_Int_Tables_number   1
_chemical_formula_structural   ZrTaTiVOsC5
_chemical_formula_sum   'Zr4 Ta4 Ti4 V4 Os4 C20'
_cell_volume   436.80247713
_cell_formula_units_Z   4
loop_
 _symmetry_equiv_pos_site_id
 _symmetry_equiv_pos_as_xyz
  1  'x, y, z'
loop_
 _atom_site_type_symbol
 _atom_site_label
 _atom_site_symmetry_multiplicity
 _atom_site_fract_x
 _atom_site_fract_y
 _atom_site_fract_z
 _atom_site_occupancy
  Zr  Zr0  1  0.19498948  0.60898599  0.00401132  1
  Zr  Zr1  1  0.49716462  0.50412414  0.74138443  1
  Zr  Zr2  1  0.69672143  0.10087115  0.75119084  1
  Zr  Zr3  1  0.79267629  0.40232111  0.00967683  1
  Ta  Ta4  1  0.32113526  0.90143698  0.26016786  1
  Ta  Ta5  1  0.30297638  0.90316537  0.74493253  1
  Ta  Ta6  1  1.01162949  -0.01147713  0.49844647  1
  Ta  Ta7  1  0.09839310  0.29873429  0.75110375  1
  Ti  Ti8  1  0.60689989  0.81020554  0.01358732  1
  Ti  Ti9  1  0.89662823  0.70102893  0.25810798  1
  Ti  Ti10  1  0.89633577  0.70111745  0.74243859  1
  Ti  Ti11  1  0.79247567  0.39785926  0.48914679  1
  V  V12  1  0.20069995  0.57744950  0.48954084  1
  V  V13  1  0.38506901  0.19953380  1.01418568  1
  V  V14  1  0.00583573  0.00220994  0.00721208  1
  V  V15  1  0.09689612  0.29352422  0.25019221  1
  Os  Os16  1  0.45326000  0.45799262  0.25120070  1
  Os  Os17  1  0.76106619  0.09223567  0.24076630  1
  Os  Os18  1  0.35609715  0.21889503  0.49754928  1
  Os  Os19  1  0.62860578  0.84069823  0.48874491  1
  C  C20  1  0.38832943  0.19733892  0.74840846  1
  C  C21  1  0.49167269  0.49567324  0.01493902  1
  C  C22  1  0.37867055  0.19374537  0.25050551  1
  C  C23  1  0.48325562  0.48031215  0.48423248  1
  C  C24  1  0.60240052  0.80256664  0.74370719  1
  C  C25  1  0.69934499  0.09224265  0.01261876  1
  C  C26  1  0.80682215  0.40926192  0.74130531  1
  C  C27  1  0.89191083  0.71935629  0.00230023  1
  C  C28  1  0.10467619  0.28539765  0.00431264  1
  C  C29  1  0.61842223  0.81925859  0.25592463  1
  C  C30  1  0.71587577  0.10538112  0.48321363  1
  C  C31  1  0.80398715  0.39598617  0.25848729  1
  C  C32  1  0.89882478  0.70057095  0.49821452  1
  C  C33  1  0.00634769  0.99636701  0.75327710  1
  C  C34  1  0.08769468  0.30223815  0.49498463  1
  C  C35  1  0.18882360  0.60415489  0.73582084  1
  C  C36  1  0.30750870  0.91234731  0.00352855  1
  C  C37  1  0.02235621  -0.00639672  0.24710885  1
  C  C38  1  0.19265261  0.59347264  0.26099016  1
  C  C39  1  0.31787708  0.90018842  0.50110402  1
