# generated using pymatgen
data_ZrTaTiVReC5
_symmetry_space_group_name_H-M   'P 1'
_cell_length_a   7.01287582
_cell_length_b   7.02042318
_cell_length_c   8.80712560
_cell_angle_alpha   89.88835710
_cell_angle_beta   90.10436333
_cell_angle_gamma   89.98083564
_symmetry_Int_Tables_number   1
_chemical_formula_structural   ZrTaTiVReC5
_chemical_formula_sum   'Zr4 Ta4 Ti4 V4 Re4 C20'
_cell_volume   433.60278258
_cell_formula_units_Z   4
loop_
 _symmetry_equiv_pos_site_id
 _symmetry_equiv_pos_as_xyz
  1  'x, y, z'
loop_
 _atom_site_type_symbol
 _atom_site_label
 _atom_site_symmetry_multiplicity
 _atom_site_fract_x
 _atom_site_fract_y
 _atom_site_fract_z
 _atom_site_occupancy
  Zr  Zr0  1  0.19537039  0.60748443  0.00335014  1
  Zr  Zr1  1  0.49854190  0.50383991  0.74602537  1
  Zr  Zr2  1  0.69860821  0.10076844  0.75252095  1
  Zr  Zr3  1  0.80004843  0.40223316  0.00812982  1
  Ta  Ta4  1  0.31384106  0.89870997  0.25769835  1
  Ta  Ta5  1  0.29796176  0.90352633  0.74564617  1
  Ta  Ta6  1  1.00501468  -0.00606008  0.49562980  1
  Ta  Ta7  1  0.10053040  0.29804764  0.74816930  1
  Ti  Ti8  1  0.60458697  0.80575353  0.00967891  1
  Ti  Ti9  1  0.89240773  0.70124368  0.25616590  1
  Ti  Ti10  1  0.89998343  0.70199954  0.74322156  1
  Ti  Ti11  1  0.78963230  0.40392880  0.49110200  1
  V  V12  1  0.20465908  0.57183739  0.48807104  1
  V  V13  1  0.39134694  0.19893002  1.01881348  1
  V  V14  1  0.00110775  0.00281216  0.01165570  1
  V  V15  1  0.10658791  0.30146485  0.25935724  1
  Re  Re16  1  0.47255234  0.47205345  0.25079371  1
  Re  Re17  1  0.74416469  0.09412645  0.24214198  1
  Re  Re18  1  0.37855068  0.22165005  0.49132569  1
  Re  Re19  1  0.61881950  0.81800294  0.49541286  1
  C  C20  1  0.39095643  0.19785355  0.74216734  1
  C  C21  1  0.49551323  0.49698549  0.01380722  1
  C  C22  1  0.39007301  0.19543383  0.25035404  1
  C  C23  1  0.49400898  0.50069991  0.48625503  1
  C  C24  1  0.60153184  0.80250958  0.74327019  1
  C  C25  1  0.69690943  0.09270241  0.01245852  1
  C  C26  1  0.80849109  0.40879330  0.74094745  1
  C  C27  1  0.89291498  0.71973316  0.00260960  1
  C  C28  1  0.10938284  0.28359101  0.00690180  1
  C  C29  1  0.60907327  0.80486909  0.25499307  1
  C  C30  1  0.69064587  0.10034932  0.48346648  1
  C  C31  1  0.79787993  0.39214899  0.25944681  1
  C  C32  1  0.89430459  0.70007194  0.49717959  1
  C  C33  1  0.00498280  0.99744916  0.75172012  1
  C  C34  1  0.09526235  0.29694935  0.49544580  1
  C  C35  1  0.18876002  0.60377931  0.73506926  1
  C  C36  1  0.30551661  0.91370614  0.00311346  1
  C  C37  1  0.01271135  -0.00382250  0.24828586  1
  C  C38  1  0.19592999  0.59110349  0.25944526  1
  C  C39  1  0.31161539  0.90242573  0.49959714  1
