# generated using pymatgen
data_ZrTaTiVRhC5
_symmetry_space_group_name_H-M   'P 1'
_cell_length_a   7.00387190
_cell_length_b   7.01644358
_cell_length_c   8.79824396
_cell_angle_alpha   90.08449980
_cell_angle_beta   90.29137194
_cell_angle_gamma   90.08195324
_symmetry_Int_Tables_number   1
_chemical_formula_structural   ZrTaTiVRhC5
_chemical_formula_sum   'Zr4 Ta4 Ti4 V4 Rh4 C20'
_cell_volume   432.35918955
_cell_formula_units_Z   4
loop_
 _symmetry_equiv_pos_site_id
 _symmetry_equiv_pos_as_xyz
  1  'x, y, z'
loop_
 _atom_site_type_symbol
 _atom_site_label
 _atom_site_symmetry_multiplicity
 _atom_site_fract_x
 _atom_site_fract_y
 _atom_site_fract_z
 _atom_site_occupancy
  Zr  Zr0  1  0.19840983  0.60324911  0.00681712  1
  Zr  Zr1  1  0.49762023  0.50054943  0.74530969  1
  Zr  Zr2  1  0.69853491  0.09812918  0.74904648  1
  Zr  Zr3  1  0.80061898  0.39698169  0.00864220  1
  Ta  Ta4  1  0.31725146  0.89582754  0.25965577  1
  Ta  Ta5  1  0.29712954  0.90277401  0.74506054  1
  Ta  Ta6  1  0.99628685  0.00093047  0.48713604  1
  Ta  Ta7  1  0.10166226  0.29894373  0.73810738  1
  Ti  Ti8  1  0.60635060  0.80647376  0.00834455  1
  Ti  Ti9  1  0.89017791  0.70589896  0.25687598  1
  Ti  Ti10  1  0.89997970  0.70383788  0.74130242  1
  Ti  Ti11  1  0.78671513  0.41008322  0.48981496  1
  V  V12  1  0.20875708  0.58311281  0.48660953  1
  V  V13  1  0.38685317  0.19749740  1.01370233  1
  V  V14  1  -0.00181687  0.00321397  0.01791434  1
  V  V15  1  0.09974467  0.30896677  0.26479648  1
  Rh  Rh16  1  0.49270547  0.47288381  0.25125093  1
  Rh  Rh17  1  0.70905048  0.10317130  0.24936646  1
  Rh  Rh18  1  0.40021303  0.19763294  0.49048450  1
  Rh  Rh19  1  0.60630750  0.80540163  0.49763255  1
  C  C20  1  0.39085768  0.19545517  0.75613939  1
  C  C21  1  0.49601467  0.48956098  1.01017672  1
  C  C22  1  0.38798573  0.19780878  0.24445645  1
  C  C23  1  0.48848239  0.49793042  0.48571596  1
  C  C24  1  0.60108492  0.79913509  0.74997589  1
  C  C25  1  0.70199273  0.08976759  0.01088485  1
  C  C26  1  0.81030735  0.40989174  0.74122353  1
  C  C27  1  0.89518895  0.71976437  0.00235246  1
  C  C28  1  0.11054871  0.28222460  0.00601295  1
  C  C29  1  0.60748536  0.80557162  0.25356542  1
  C  C30  1  0.69871936  0.10756308  0.48694075  1
  C  C31  1  0.81111505  0.40141073  0.25933857  1
  C  C32  1  0.90091044  0.70442142  0.49739307  1
  C  C33  1  0.00510359  0.99840994  0.74890935  1
  C  C34  1  0.10453605  0.30247834  0.49135896  1
  C  C35  1  0.18906547  0.60318141  0.73683628  1
  C  C36  1  0.30248814  0.91120332  0.00390827  1
  C  C37  1  0.00696756  0.00405538  0.24367226  1
  C  C38  1  0.19538972  0.59183719  0.26241240  1
  C  C39  1  0.30345470  0.89290956  0.49973069  1
