# generated using pymatgen
data_ZrTaTiVCrC5
_symmetry_space_group_name_H-M   'P 1'
_cell_length_a   6.93285364
_cell_length_b   6.96547354
_cell_length_c   8.70617718
_cell_angle_alpha   89.70527141
_cell_angle_beta   89.95470384
_cell_angle_gamma   89.62570331
_symmetry_Int_Tables_number   1
_chemical_formula_structural   ZrTaTiVCrC5
_chemical_formula_sum   'Zr4 Ta4 Ti4 V4 Cr4 C20'
_cell_volume   420.41194047
_cell_formula_units_Z   4
loop_
 _symmetry_equiv_pos_site_id
 _symmetry_equiv_pos_as_xyz
  1  'x, y, z'
loop_
 _atom_site_type_symbol
 _atom_site_label
 _atom_site_symmetry_multiplicity
 _atom_site_fract_x
 _atom_site_fract_y
 _atom_site_fract_z
 _atom_site_occupancy
  Zr  Zr0  1  0.19651685  0.60643329  0.00518878  1
  Zr  Zr1  1  0.49875702  0.50322653  0.74213567  1
  Zr  Zr2  1  0.70011884  0.09998248  0.75465326  1
  Zr  Zr3  1  0.80074065  0.39953139  0.00968952  1
  Ta  Ta4  1  0.31544348  0.89913328  0.25650064  1
  Ta  Ta5  1  0.30256511  0.90487196  0.74417578  1
  Ta  Ta6  1  0.00345801  -0.00229655  0.49036749  1
  Ta  Ta7  1  0.10327650  0.29874982  0.74196018  1
  Ti  Ti8  1  0.60286338  0.80289049  0.01197450  1
  Ti  Ti9  1  0.88980404  0.70160977  0.25825252  1
  Ti  Ti10  1  0.89923793  0.70367009  0.73840662  1
  Ti  Ti11  1  0.78632840  0.40496381  0.48907985  1
  V  V12  1  0.20712874  0.57548752  0.48498603  1
  V  V13  1  0.39224813  0.19940843  0.01352518  1
  V  V14  1  -0.00684578  0.00353833  0.01859775  1
  V  V15  1  0.10543306  0.30055665  0.26007308  1
  Cr  Cr16  1  0.47992150  0.46068159  0.25458181  1
  Cr  Cr17  1  0.71047695  0.09994288  0.25116234  1
  Cr  Cr18  1  0.40537697  0.19541160  0.48208239  1
  Cr  Cr19  1  0.61430952  0.84127966  0.48936621  1
  C  C20  1  0.39405578  0.19855756  0.75035390  1
  C  C21  1  0.49506235  0.49448468  0.01870262  1
  C  C22  1  0.39804484  0.19884580  0.25243930  1
  C  C23  1  0.48606095  0.47727142  0.48083544  1
  C  C24  1  0.60372218  0.80258835  0.73804493  1
  C  C25  1  0.69658318  0.09248721  0.02033700  1
  C  C26  1  0.81028112  0.40976128  0.74084433  1
  C  C27  1  0.89242274  0.71969544  0.00414703  1
  C  C28  1  0.10991450  0.28235091  0.00996858  1
  C  C29  1  0.60953001  0.81364815  0.26128868  1
  C  C30  1  0.69218064  0.10449661  0.48556180  1
  C  C31  1  0.79289297  0.39304302  0.25911387  1
  C  C32  1  0.88940967  0.70278840  0.49646265  1
  C  C33  1  0.00626552  0.99839002  0.75041884  1
  C  C34  1  0.10642099  0.29509713  0.49176768  1
  C  C35  1  0.19055305  0.60481761  0.73254982  1
  C  C36  1  0.30287290  0.91283526  0.00338817  1
  C  C37  1  0.99751683  0.00458297  0.24707739  1
  C  C38  1  0.20009784  0.59077275  0.26043547  1
  C  C39  1  0.31765971  0.90435996  0.49775827  1
