# generated using pymatgen
data_ZrTaTiMnVC5
_symmetry_space_group_name_H-M   'P 1'
_cell_length_a   7.03733529
_cell_length_b   7.02206386
_cell_length_c   8.68038499
_cell_angle_alpha   89.87353906
_cell_angle_beta   89.80558367
_cell_angle_gamma   89.81436733
_symmetry_Int_Tables_number   1
_chemical_formula_structural   ZrTaTiMnVC5
_chemical_formula_sum   'Zr4 Ta4 Ti4 Mn4 V4 C20'
_cell_volume   428.94951202
_cell_formula_units_Z   4
loop_
 _symmetry_equiv_pos_site_id
 _symmetry_equiv_pos_as_xyz
  1  'x, y, z'
loop_
 _atom_site_type_symbol
 _atom_site_label
 _atom_site_symmetry_multiplicity
 _atom_site_fract_x
 _atom_site_fract_y
 _atom_site_fract_z
 _atom_site_occupancy
  Zr  Zr0  1  0.19498029  0.60706839  0.00150447  1
  Zr  Zr1  1  0.49799170  0.50446904  0.74106451  1
  Zr  Zr2  1  0.69721606  0.10159764  0.75208691  1
  Zr  Zr3  1  0.79318345  0.40061121  0.01151128  1
  Ta  Ta4  1  0.32206334  0.89933470  0.25715938  1
  Ta  Ta5  1  0.30688406  0.90528818  0.74383237  1
  Ta  Ta6  1  0.01699117  0.99006755  0.49802297  1
  Ta  Ta7  1  0.09976545  0.29874289  0.74912114  1
  Ti  Ti8  1  0.60633276  0.80724337  0.01190373  1
  Ti  Ti9  1  0.89813178  0.70070247  0.25568963  1
  Ti  Ti10  1  0.89566227  0.70197654  0.74164667  1
  Ti  Ti11  1  0.78660880  0.39791297  0.48802989  1
  Mn  Mn12  1  0.44025133  0.45031521  0.25545236  1
  Mn  Mn13  1  0.76290821  0.08183114  0.24548081  1
  Mn  Mn14  1  0.35892712  0.22297440  0.49202383  1
  Mn  Mn15  1  0.62555209  0.84544492  0.48673379  1
  V  V16  1  0.19532393  0.58538364  0.49262014  1
  V  V17  1  0.38660243  0.20055334  1.01540015  1
  V  V18  1  1.00971751  0.00292535  0.00602966  1
  V  V19  1  0.08977041  0.30118217  0.25658338  1
  C  C20  1  0.39060844  0.20134394  0.74463768  1
  C  C21  1  0.49133441  0.49357849  0.02422557  1
  C  C22  1  0.36964858  0.20060757  0.25440222  1
  C  C23  1  0.48111229  0.46973490  0.47684844  1
  C  C24  1  0.60387834  0.80400682  0.73846788  1
  C  C25  1  0.70091457  0.09106146  0.02516020  1
  C  C26  1  0.80618776  0.40849680  0.74050194  1
  C  C27  1  0.89236316  0.71652143  0.00135524  1
  C  C28  1  0.10498889  0.28422465  0.00517000  1
  C  C29  1  0.62430636  0.83662462  0.25995944  1
  C  C30  1  0.71541812  0.09358842  0.47982413  1
  C  C31  1  0.80480737  0.38621164  0.25934305  1
  C  C32  1  0.88979785  0.70177172  0.49631928  1
  C  C33  1  0.00605533  0.99745272  0.75399992  1
  C  C34  1  0.09781255  0.29801003  0.49653542  1
  C  C35  1  0.19117637  0.60558584  0.73389487  1
  C  C36  1  0.30908944  0.91189698  0.00279960  1
  C  C37  1  1.01363454  -0.00206278  0.24586906  1
  C  C38  1  0.19889932  0.59373985  0.25956556  1
  C  C39  1  0.32413025  0.90282229  0.49817853  1
