# generated using pymatgen
data_ZrTaTiVIrC5
_symmetry_space_group_name_H-M   'P 1'
_cell_length_a   6.99619827
_cell_length_b   7.04668869
_cell_length_c   8.80087641
_cell_angle_alpha   90.13237707
_cell_angle_beta   90.26758948
_cell_angle_gamma   90.09328527
_symmetry_Int_Tables_number   1
_chemical_formula_structural   ZrTaTiVIrC5
_chemical_formula_sum   'Zr4 Ta4 Ti4 V4 Ir4 C20'
_cell_volume   433.87700915
_cell_formula_units_Z   4
loop_
 _symmetry_equiv_pos_site_id
 _symmetry_equiv_pos_as_xyz
  1  'x, y, z'
loop_
 _atom_site_type_symbol
 _atom_site_label
 _atom_site_symmetry_multiplicity
 _atom_site_fract_x
 _atom_site_fract_y
 _atom_site_fract_z
 _atom_site_occupancy
  Zr  Zr0  1  0.19766808  0.60475996  0.00754367  1
  Zr  Zr1  1  0.49663057  0.50080926  0.74438032  1
  Zr  Zr2  1  0.69725176  0.09840905  0.74655522  1
  Zr  Zr3  1  0.79863903  0.39821764  0.00882935  1
  Ta  Ta4  1  0.32275874  0.90157546  0.26067764  1
  Ta  Ta5  1  0.29652909  0.90152763  0.74517028  1
  Ta  Ta6  1  0.99866370  -0.00041987  0.48886044  1
  Ta  Ta7  1  0.09919399  0.29907136  0.74180675  1
  Ti  Ti8  1  0.60753951  0.80916788  1.00890418  1
  Ti  Ti9  1  0.89315205  0.70812562  0.25646147  1
  Ti  Ti10  1  0.89939453  0.70268453  0.74189801  1
  Ti  Ti11  1  0.78401863  0.40831900  0.48829465  1
  V  V12  1  0.20442624  0.57813338  0.48733960  1
  V  V13  1  0.38826033  0.19602913  1.01385196  1
  V  V14  1  0.00295691  0.00492812  0.01434190  1
  V  V15  1  0.10151553  0.30820480  0.26239943  1
  Ir  Ir16  1  0.48207396  0.46880244  0.24845402  1
  Ir  Ir17  1  0.72633800  0.10070072  0.24455311  1
  Ir  Ir18  1  0.38408844  0.20120618  0.49964128  1
  Ir  Ir19  1  0.61269968  0.80555810  0.50042080  1
  C  C20  1  0.38950344  0.19482947  0.75244236  1
  C  C21  1  0.49460248  0.49075274  1.00995762  1
  C  C22  1  0.38670790  0.19827397  0.24832459  1
  C  C23  1  0.48811346  0.49294906  0.48523886  1
  C  C24  1  0.60087904  0.79983893  0.74824494  1
  C  C25  1  0.70181123  0.09077762  0.00866908  1
  C  C26  1  0.80821390  0.40970293  0.74077097  1
  C  C27  1  0.89461110  0.72027695  0.00231588  1
  C  C28  1  0.10884558  0.28279326  0.00586706  1
  C  C29  1  0.61219904  0.81237857  0.25615763  1
  C  C30  1  0.70095976  0.10422591  0.48480162  1
  C  C31  1  0.80715981  0.40175283  0.25807477  1
  C  C32  1  0.90045993  0.70221278  0.49738659  1
  C  C33  1  0.00479941  0.99758497  0.74984762  1
  C  C34  1  0.10023025  0.30073759  0.49358948  1
  C  C35  1  0.18735727  0.60289228  0.73647032  1
  C  C36  1  0.30481870  0.91100529  0.00464318  1
  C  C37  1  0.00943911  0.00252206  0.24540725  1
  C  C38  1  0.19710329  0.59253647  0.26183361  1
  C  C39  1  0.30830563  0.89575347  0.50087546  1
