# generated using pymatgen
data_HfTaTiNbWC5
_symmetry_space_group_name_H-M   'P 1'
_cell_length_a   7.10373423
_cell_length_b   4.45959116
_cell_length_c   7.08733394
_cell_angle_alpha   90.00030996
_cell_angle_beta   90.00439431
_cell_angle_gamma   89.99980760
_symmetry_Int_Tables_number   1
_chemical_formula_structural   HfTaTiNbWC5
_chemical_formula_sum   'Hf2 Ta2 Ti2 Nb2 W2 C10'
_cell_volume   224.52496936
_cell_formula_units_Z   2
loop_
 _symmetry_equiv_pos_site_id
 _symmetry_equiv_pos_as_xyz
  1  'x, y, z'
loop_
 _atom_site_type_symbol
 _atom_site_label
 _atom_site_symmetry_multiplicity
 _atom_site_fract_x
 _atom_site_fract_y
 _atom_site_fract_z
 _atom_site_occupancy
  Hf  Hf0  1  0.40074131  -0.00019495  0.80376177  1
  Hf  Hf1  1  0.10428851  0.50000323  0.69415177  1
  Ta  Ta2  1  0.69857035  0.49949281  0.90616297  1
  Ta  Ta3  1  -0.00454612  -0.00032441  0.01201917  1
  Ti  Ti4  1  0.29609746  0.50040139  0.10867068  1
  Ti  Ti5  1  0.59224421  -0.00040350  0.20332944  1
  Nb  Nb6  1  0.50841370  0.49989242  0.49477905  1
  Nb  Nb7  1  0.80527195  -0.00002008  0.59055192  1
  W  W8  1  0.21288500  0.00363802  0.39006894  1
  W  W9  1  0.88827638  0.51116374  0.29293769  1
  C  C10  1  0.70391464  -0.00049801  0.90757325  1
  C  C11  1  0.49779174  0.99938610  0.49108026  1
  C  C12  1  0.59919632  0.49889518  0.19730479  1
  C  C13  1  0.90016855  0.99634782  0.29933455  1
  C  C14  1  0.00045106  0.49887247  0.01029197  1
  C  C15  1  0.29717719  0.99911728  0.10845034  1
  C  C16  1  0.40425479  0.49976913  0.80735505  1
  C  C17  1  0.79926439  0.49928443  0.59660842  1
  C  C18  1  0.09792330  0.99960320  0.69651745  1
  C  C19  1  0.19670591  0.49617634  0.39058176  1
