# generated using pymatgen
data_HfTaTiNbWC5
_symmetry_space_group_name_H-M   'P 1'
_cell_length_a   7.08133699
_cell_length_b   4.47151397
_cell_length_c   7.06107994
_cell_angle_alpha   90.00053328
_cell_angle_beta   89.96932037
_cell_angle_gamma   90.00088883
_symmetry_Int_Tables_number   1
_chemical_formula_structural   HfTaTiNbWC5
_chemical_formula_sum   'Hf2 Ta2 Ti2 Nb2 W2 C10'
_cell_volume   223.58410198
_cell_formula_units_Z   2
loop_
 _symmetry_equiv_pos_site_id
 _symmetry_equiv_pos_as_xyz
  1  'x, y, z'
loop_
 _atom_site_type_symbol
 _atom_site_label
 _atom_site_symmetry_multiplicity
 _atom_site_fract_x
 _atom_site_fract_y
 _atom_site_fract_z
 _atom_site_occupancy
  Hf  Hf0  1  0.40139931  1.00011012  0.80402812  1
  Hf  Hf1  1  0.10411194  0.50000172  0.69374351  1
  Ta  Ta2  1  0.69971869  0.50026652  0.90636696  1
  Ta  Ta3  1  -0.00395703  1.00005246  0.01265088  1
  Ti  Ti4  1  0.29644380  0.49952196  0.10857948  1
  Ti  Ti5  1  0.59264081  0.00017553  0.20296850  1
  Nb  Nb6  1  0.50818437  0.49967613  0.49383163  1
  Nb  Nb7  1  0.80588858  -0.00010334  0.58881506  1
  W  W8  1  0.21365075  -0.00568472  0.38970732  1
  W  W9  1  0.88714964  0.49357892  0.29253241  1
  C  C10  1  0.70497667  0.00023875  0.90727247  1
  C  C11  1  0.49689687  0.00072470  0.49141439  1
  C  C12  1  0.59997482  0.50084013  0.19779546  1
  C  C13  1  0.89919900  0.00365045  0.29941953  1
  C  C14  1  0.00028870  0.50064297  0.01005041  1
  C  C15  1  0.29779540  0.00107850  0.10842843  1
  C  C16  1  0.40518665  0.50025373  0.80783820  1
  C  C17  1  0.79859254  0.50064064  0.59653590  1
  C  C18  1  0.09795374  1.00056701  0.69654478  1
  C  C19  1  0.19530073  0.50439685  0.38933724  1
