# generated using pymatgen
data_HfTaTiNbWC5
_symmetry_space_group_name_H-M   'P 1'
_cell_length_a   7.09048967
_cell_length_b   4.46521535
_cell_length_c   7.07227459
_cell_angle_alpha   89.99762853
_cell_angle_beta   89.98547368
_cell_angle_gamma   90.00262317
_symmetry_Int_Tables_number   1
_chemical_formula_structural   HfTaTiNbWC5
_chemical_formula_sum   'Hf2 Ta2 Ti2 Nb2 W2 C10'
_cell_volume   223.91218978
_cell_formula_units_Z   2
loop_
 _symmetry_equiv_pos_site_id
 _symmetry_equiv_pos_as_xyz
  1  'x, y, z'
loop_
 _atom_site_type_symbol
 _atom_site_label
 _atom_site_symmetry_multiplicity
 _atom_site_fract_x
 _atom_site_fract_y
 _atom_site_fract_z
 _atom_site_occupancy
  Hf  Hf0  1  0.40222244  0.99977546  0.80321855  1
  Hf  Hf1  1  0.10257525  0.50017850  0.69295871  1
  Ta  Ta2  1  0.70091026  0.49963936  0.90708380  1
  Ta  Ta3  1  -0.00244177  0.00023636  0.01358135  1
  Ti  Ti4  1  0.29797546  0.50073639  0.10763175  1
  Ti  Ti5  1  0.59348994  -0.00026563  0.20337530  1
  Nb  Nb6  1  0.50610957  0.49993199  0.49281023  1
  Nb  Nb7  1  0.80423414  1.00036715  0.58859681  1
  W  W8  1  0.21060706  0.00640079  0.38872268  1
  W  W9  1  0.88831015  0.51036585  0.29368411  1
  C  C10  1  0.70522793  -0.00029394  0.90771238  1
  C  C11  1  0.49493254  -0.00073383  0.49183748  1
  C  C12  1  0.60054062  0.49878750  0.19941934  1
  C  C13  1  0.89913406  -0.00558440  0.30089334  1
  C  C14  1  0.00128571  0.49893277  0.00986735  1
  C  C15  1  0.29981298  0.99871210  0.10772452  1
  C  C16  1  0.40528288  0.49960100  0.80807873  1
  C  C17  1  0.79713740  0.49918475  0.59791655  1
  C  C18  1  0.09755524  -0.00059483  0.69760438  1
  C  C19  1  0.19363213  0.49583527  0.38854498  1
