# generated using pymatgen
data_HfTaTiNbWC5
_symmetry_space_group_name_H-M   'P 1'
_cell_length_a   7.07810548
_cell_length_b   4.47533671
_cell_length_c   7.05447521
_cell_angle_alpha   89.99378359
_cell_angle_beta   89.94486770
_cell_angle_gamma   89.98905936
_symmetry_Int_Tables_number   1
_chemical_formula_structural   HfTaTiNbWC5
_chemical_formula_sum   'Hf2 Ta2 Ti2 Nb2 W2 C10'
_cell_volume   223.46383422
_cell_formula_units_Z   2
loop_
 _symmetry_equiv_pos_site_id
 _symmetry_equiv_pos_as_xyz
  1  'x, y, z'
loop_
 _atom_site_type_symbol
 _atom_site_label
 _atom_site_symmetry_multiplicity
 _atom_site_fract_x
 _atom_site_fract_y
 _atom_site_fract_z
 _atom_site_occupancy
  Hf  Hf0  1  0.40177739  0.00030916  0.80438802  1
  Hf  Hf1  1  0.10372604  0.50043925  0.69330189  1
  Ta  Ta2  1  0.70030543  0.50024395  0.90630588  1
  Ta  Ta3  1  0.99614694  0.99989683  0.01293566  1
  Ti  Ti4  1  0.29673592  0.50081363  0.10881128  1
  Ti  Ti5  1  0.59289555  1.00006565  0.20321516  1
  Nb  Nb6  1  0.50757018  0.50067719  0.49373642  1
  Nb  Nb7  1  0.80555184  0.99989892  0.58820105  1
  W  W8  1  0.21305112  0.00432291  0.39019955  1
  W  W9  1  0.88653529  0.48962739  0.29323477  1
  C  C10  1  0.70514840  1.00010387  0.90717362  1
  C  C11  1  0.49647753  0.99995851  0.49184106  1
  C  C12  1  0.59948577  0.50041277  0.19827467  1
  C  C13  1  0.89944319  0.00300688  0.30003837  1
  C  C14  1  0.00025288  0.50086673  0.01007334  1
  C  C15  1  0.29813698  -0.00026592  0.10831144  1
  C  C16  1  0.40539512  0.50018253  0.80794256  1
  C  C17  1  0.79829928  0.50040122  0.59644174  1
  C  C18  1  0.09809032  0.00006899  0.69711889  1
  C  C19  1  0.19449905  0.49948757  0.38925742  1
