# generated using pymatgen
data_HfTaTiNbWC5
_symmetry_space_group_name_H-M   'P 1'
_cell_length_a   7.08093271
_cell_length_b   4.47590596
_cell_length_c   7.05792709
_cell_angle_alpha   89.99562019
_cell_angle_beta   89.94971579
_cell_angle_gamma   89.99316396
_symmetry_Int_Tables_number   1
_chemical_formula_structural   HfTaTiNbWC5
_chemical_formula_sum   'Hf2 Ta2 Ti2 Nb2 W2 C10'
_cell_volume   223.69095139
_cell_formula_units_Z   2
loop_
 _symmetry_equiv_pos_site_id
 _symmetry_equiv_pos_as_xyz
  1  'x, y, z'
loop_
 _atom_site_type_symbol
 _atom_site_label
 _atom_site_symmetry_multiplicity
 _atom_site_fract_x
 _atom_site_fract_y
 _atom_site_fract_z
 _atom_site_occupancy
  Hf  Hf0  1  0.40199372  1.00027278  0.80401962  1
  Hf  Hf1  1  0.10344746  0.50034165  0.69310802  1
  Ta  Ta2  1  0.70040261  0.50031279  0.90655384  1
  Ta  Ta3  1  0.99628884  -0.00014789  0.01305684  1
  Ti  Ti4  1  0.29697179  0.50029462  0.10874855  1
  Ti  Ti5  1  0.59331038  1.00002822  0.20328406  1
  Nb  Nb6  1  0.50738174  0.50035158  0.49325868  1
  Nb  Nb7  1  0.80537895  -0.00017941  0.58819955  1
  W  W8  1  0.21289680  0.00093581  0.38973087  1
  W  W9  1  0.88733227  0.48890128  0.29345267  1
  C  C10  1  0.70515980  1.00015986  0.90719455  1
  C  C11  1  0.49613513  1.00033155  0.49186927  1
  C  C12  1  0.59990486  0.50074568  0.19862135  1
  C  C13  1  0.89923277  0.00352331  0.30021159  1
  C  C14  1  0.00047174  0.50096730  0.00997370  1
  C  C15  1  0.29866732  1.00030016  0.10797826  1
  C  C16  1  0.40539386  0.50030561  0.80785087  1
  C  C17  1  0.79805616  0.50068204  0.59668817  1
  C  C18  1  0.09794282  1.00027427  0.69713036  1
  C  C19  1  0.19423664  0.50097605  0.38927917  1
