# generated using pymatgen
data_HfTaTiNbWC5
_symmetry_space_group_name_H-M   'P 1'
_cell_length_a   7.08142339
_cell_length_b   4.47409936
_cell_length_c   7.05943529
_cell_angle_alpha   90.00559145
_cell_angle_beta   89.95918829
_cell_angle_gamma   90.00374597
_symmetry_Int_Tables_number   1
_chemical_formula_structural   HfTaTiNbWC5
_chemical_formula_sum   'Hf2 Ta2 Ti2 Nb2 W2 C10'
_cell_volume   223.66397254
_cell_formula_units_Z   2
loop_
 _symmetry_equiv_pos_site_id
 _symmetry_equiv_pos_as_xyz
  1  'x, y, z'
loop_
 _atom_site_type_symbol
 _atom_site_label
 _atom_site_symmetry_multiplicity
 _atom_site_fract_x
 _atom_site_fract_y
 _atom_site_fract_z
 _atom_site_occupancy
  Hf  Hf0  1  0.40170699  -0.00000897  0.80402235  1
  Hf  Hf1  1  0.10367759  0.49979821  0.69327559  1
  Ta  Ta2  1  0.70004453  0.50017878  0.90645244  1
  Ta  Ta3  1  -0.00401801  0.00036085  0.01307989  1
  Ti  Ti4  1  0.29682637  0.49925065  0.10901487  1
  Ti  Ti5  1  0.59333634  0.00023673  0.20334113  1
  Nb  Nb6  1  0.50789174  0.49947003  0.49365146  1
  Nb  Nb7  1  0.80579009  1.00018144  0.58828789  1
  W  W8  1  0.21340763  0.99329607  0.38967778  1
  W  W9  1  0.88694141  0.50290858  0.29292711  1
  C  C10  1  0.70506550  0.00021645  0.90720756  1
  C  C11  1  0.49651363  0.00061953  0.49174613  1
  C  C12  1  0.59986847  0.50033958  0.19820963  1
  C  C13  1  0.89909176  0.99997147  0.29991306  1
  C  C14  1  0.00021297  0.50009076  0.01016236  1
  C  C15  1  0.29812953  0.00103600  0.10825212  1
  C  C16  1  0.40535987  0.50016772  0.80784543  1
  C  C17  1  0.79842421  0.50014965  0.59649681  1
  C  C18  1  0.09791901  0.00044388  0.69689594  1
  C  C19  1  0.19498640  0.50339447  0.38934917  1
