# generated using pymatgen
data_HfTaTiNbWC5
_symmetry_space_group_name_H-M   'P 1'
_cell_length_a   7.08202117
_cell_length_b   4.47185957
_cell_length_c   7.06170008
_cell_angle_alpha   89.99681347
_cell_angle_beta   89.96936090
_cell_angle_gamma   89.99769592
_symmetry_Int_Tables_number   1
_chemical_formula_structural   HfTaTiNbWC5
_chemical_formula_sum   'Hf2 Ta2 Ti2 Nb2 W2 C10'
_cell_volume   223.64262599
_cell_formula_units_Z   2
loop_
 _symmetry_equiv_pos_site_id
 _symmetry_equiv_pos_as_xyz
  1  'x, y, z'
loop_
 _atom_site_type_symbol
 _atom_site_label
 _atom_site_symmetry_multiplicity
 _atom_site_fract_x
 _atom_site_fract_y
 _atom_site_fract_z
 _atom_site_occupancy
  Hf  Hf0  1  0.40123027  1.00005790  0.80409109  1
  Hf  Hf1  1  0.10395426  0.50004431  0.69367434  1
  Ta  Ta2  1  0.69953748  0.50003554  0.90653287  1
  Ta  Ta3  1  -0.00430405  0.99975338  0.01284743  1
  Ti  Ti4  1  0.29621395  0.50025459  0.10898758  1
  Ti  Ti5  1  0.59276032  0.00006863  0.20319846  1
  Nb  Nb6  1  0.50832040  0.50029949  0.49405482  1
  Nb  Nb7  1  0.80583728  0.99980910  0.58893742  1
  W  W8  1  0.21406020  1.00180758  0.38965929  1
  W  W9  1  0.88692466  0.49562225  0.29235137  1
  C  C10  1  0.70476170  0.00002935  0.90741331  1
  C  C11  1  0.49690693  -0.00001791  0.49166602  1
  C  C12  1  0.59983719  0.50039346  0.19794658  1
  C  C13  1  0.89912071  1.00149855  0.29975995  1
  C  C14  1  0.00010530  0.50019351  0.01029818  1
  C  C15  1  0.29761300  0.99974932  0.10853066  1
  C  C16  1  0.40507958  0.50000840  0.80794390  1
  C  C17  1  0.79862836  0.49996086  0.59672042  1
  C  C18  1  0.09786287  0.99987532  0.69663888  1
  C  C19  1  0.19538274  0.49972414  0.38961152  1
