# generated using pymatgen
data_HfTaTiNbWC5
_symmetry_space_group_name_H-M   'P 1'
_cell_length_a   7.09011933
_cell_length_b   4.46400264
_cell_length_c   7.07180293
_cell_angle_alpha   89.99586973
_cell_angle_beta   89.99537815
_cell_angle_gamma   89.99909999
_symmetry_Int_Tables_number   1
_chemical_formula_structural   HfTaTiNbWC5
_chemical_formula_sum   'Hf2 Ta2 Ti2 Nb2 W2 C10'
_cell_volume   223.82476335
_cell_formula_units_Z   2
loop_
 _symmetry_equiv_pos_site_id
 _symmetry_equiv_pos_as_xyz
  1  'x, y, z'
loop_
 _atom_site_type_symbol
 _atom_site_label
 _atom_site_symmetry_multiplicity
 _atom_site_fract_x
 _atom_site_fract_y
 _atom_site_fract_z
 _atom_site_occupancy
  Hf  Hf0  1  0.40139294  0.00008770  0.80347855  1
  Hf  Hf1  1  0.10343108  0.50040904  0.69320048  1
  Ta  Ta2  1  0.69956692  0.50002379  0.90662950  1
  Ta  Ta3  1  -0.00431692  1.00003648  0.01343717  1
  Ti  Ti4  1  0.29673104  0.50094450  0.10926090  1
  Ti  Ti5  1  0.59275237  -0.00003106  0.20352956  1
  Nb  Nb6  1  0.50805006  0.50025250  0.49385364  1
  Nb  Nb7  1  0.80554019  0.99989125  0.58884166  1
  W  W8  1  0.21262488  0.00602002  0.38946037  1
  W  W9  1  0.88712111  0.49897706  0.29293813  1
  C  C10  1  0.70457622  0.00002079  0.90746131  1
  C  C11  1  0.49675638  0.99960185  0.49152100  1
  C  C12  1  0.60010971  0.49987105  0.19825954  1
  C  C13  1  0.89971079  -0.00033025  0.30020235  1
  C  C14  1  0.00009549  0.50018237  0.01036774  1
  C  C15  1  0.29784278  -0.00083490  0.10827451  1
  C  C16  1  0.40510255  0.49995009  0.80761165  1
  C  C17  1  0.79856990  0.49988217  0.59673237  1
  C  C18  1  0.09776153  -0.00022893  0.69700004  1
  C  C19  1  0.19597003  0.49719409  0.38993209  1
