# generated using pymatgen
data_HfTaTiNbWC5
_symmetry_space_group_name_H-M   'P 1'
_cell_length_a   7.08237822
_cell_length_b   4.47209602
_cell_length_c   7.06140055
_cell_angle_alpha   90.00016313
_cell_angle_beta   89.96717826
_cell_angle_gamma   90.00600946
_symmetry_Int_Tables_number   1
_chemical_formula_structural   HfTaTiNbWC5
_chemical_formula_sum   'Hf2 Ta2 Ti2 Nb2 W2 C10'
_cell_volume   223.65623423
_cell_formula_units_Z   2
loop_
 _symmetry_equiv_pos_site_id
 _symmetry_equiv_pos_as_xyz
  1  'x, y, z'
loop_
 _atom_site_type_symbol
 _atom_site_label
 _atom_site_symmetry_multiplicity
 _atom_site_fract_x
 _atom_site_fract_y
 _atom_site_fract_z
 _atom_site_occupancy
  Hf  Hf0  1  0.40127961  0.99986513  0.80407941  1
  Hf  Hf1  1  0.10411665  0.49971297  0.69383279  1
  Ta  Ta2  1  0.69957112  0.49986005  0.90645844  1
  Ta  Ta3  1  -0.00413580  1.00006872  0.01266379  1
  Ti  Ti4  1  0.29616409  0.49975351  0.10867094  1
  Ti  Ti5  1  0.59256618  -0.00015340  0.20298452  1
  Nb  Nb6  1  0.50811872  0.49993209  0.49377328  1
  Nb  Nb7  1  0.80583890  1.00023567  0.58889802  1
  W  W8  1  0.21396749  -0.00108120  0.38957343  1
  W  W9  1  0.88685499  0.50772817  0.29289186  1
  C  C10  1  0.70488561  0.99990167  0.90729287  1
  C  C11  1  0.49673341  0.99992773  0.49143891  1
  C  C12  1  0.59981748  0.49965819  0.19774881  1
  C  C13  1  0.89890072  -0.00292230  0.29938270  1
  C  C14  1  0.00015986  0.49921177  0.01022430  1
  C  C15  1  0.29757334  0.99985885  0.10855328  1
  C  C16  1  0.40509792  0.49988937  0.80788229  1
  C  C17  1  0.79848493  0.49953615  0.59662763  1
  C  C18  1  0.09790088  -0.00028253  0.69659110  1
  C  C19  1  0.19516086  0.49901661  0.38940634  1
