# generated using pymatgen
data_HfTaTiNbWC5
_symmetry_space_group_name_H-M   'P 1'
_cell_length_a   7.08647800
_cell_length_b   4.46582357
_cell_length_c   7.06765997
_cell_angle_alpha   90.00089035
_cell_angle_beta   89.98203250
_cell_angle_gamma   90.00501777
_symmetry_Int_Tables_number   1
_chemical_formula_structural   HfTaTiNbWC5
_chemical_formula_sum   'Hf2 Ta2 Ti2 Nb2 W2 C10'
_cell_volume   223.66994372
_cell_formula_units_Z   2
loop_
 _symmetry_equiv_pos_site_id
 _symmetry_equiv_pos_as_xyz
  1  'x, y, z'
loop_
 _atom_site_type_symbol
 _atom_site_label
 _atom_site_symmetry_multiplicity
 _atom_site_fract_x
 _atom_site_fract_y
 _atom_site_fract_z
 _atom_site_occupancy
  Hf  Hf0  1  0.40135233  -0.00010317  0.80366285  1
  Hf  Hf1  1  0.10367227  0.49980525  0.69360736  1
  Ta  Ta2  1  0.69963977  0.49977225  0.90658457  1
  Ta  Ta3  1  -0.00395984  0.00008609  0.01316448  1
  Ti  Ti4  1  0.29660590  0.50006173  0.10870686  1
  Ti  Ti5  1  0.59256743  -0.00019826  0.20306937  1
  Nb  Nb6  1  0.50769881  0.49999663  0.49365312  1
  Nb  Nb7  1  0.80536079  1.00021845  0.58871024  1
  W  W8  1  0.21334350  0.00099414  0.38955941  1
  W  W9  1  0.88717643  0.50722689  0.29293368  1
  C  C10  1  0.70474563  0.99977417  0.90744783  1
  C  C11  1  0.49650623  0.99984775  0.49141057  1
  C  C12  1  0.60011207  0.49941377  0.19812320  1
  C  C13  1  0.89944760  -0.00340268  0.29983629  1
  C  C14  1  0.00020950  0.49920905  0.01023381  1
  C  C15  1  0.29792586  0.99962913  0.10832639  1
  C  C16  1  0.40502398  0.49983668  0.80772394  1
  C  C17  1  0.79828283  0.49956074  0.59673026  1
  C  C18  1  0.09772798  0.99971090  0.69674699  1
  C  C19  1  0.19525403  0.49799456  0.38939571  1
