# generated using pymatgen
data_HfTaTiNbWC5
_symmetry_space_group_name_H-M   'P 1'
_cell_length_a   7.08355193
_cell_length_b   4.47066923
_cell_length_c   7.06361894
_cell_angle_alpha   90.00246681
_cell_angle_beta   89.97324079
_cell_angle_gamma   90.00205446
_symmetry_Int_Tables_number   1
_chemical_formula_structural   HfTaTiNbWC5
_chemical_formula_sum   'Hf2 Ta2 Ti2 Nb2 W2 C10'
_cell_volume   223.69219750
_cell_formula_units_Z   2
loop_
 _symmetry_equiv_pos_site_id
 _symmetry_equiv_pos_as_xyz
  1  'x, y, z'
loop_
 _atom_site_type_symbol
 _atom_site_label
 _atom_site_symmetry_multiplicity
 _atom_site_fract_x
 _atom_site_fract_y
 _atom_site_fract_z
 _atom_site_occupancy
  Hf  Hf0  1  0.40160670  -0.00017582  0.80368879  1
  Hf  Hf1  1  0.10368359  0.49977446  0.69324782  1
  Ta  Ta2  1  0.69983568  0.49993641  0.90653647  1
  Ta  Ta3  1  -0.00407343  0.99998684  0.01325738  1
  Ti  Ti4  1  0.29637887  0.49936417  0.10890759  1
  Ti  Ti5  1  0.59260192  0.99996064  0.20311357  1
  Nb  Nb6  1  0.50793704  0.49953512  0.49360499  1
  Nb  Nb7  1  0.80578712  0.99994839  0.58842282  1
  W  W8  1  0.21332637  -0.00431723  0.38973199  1
  W  W9  1  0.88672922  0.50105578  0.29305264  1
  C  C10  1  0.70491717  0.99993381  0.90728892  1
  C  C11  1  0.49658145  1.00017189  0.49151781  1
  C  C12  1  0.59992895  0.49986655  0.19810415  1
  C  C13  1  0.89923045  1.00005534  0.29986444  1
  C  C14  1  0.00015619  0.49991327  0.01021422  1
  C  C15  1  0.29800199  1.00059674  0.10811449  1
  C  C16  1  0.40531036  0.49993603  0.80778613  1
  C  C17  1  0.79843985  0.49990289  0.59655479  1
  C  C18  1  0.09783185  1.00002418  0.69669374  1
  C  C19  1  0.19519169  0.50213273  0.38930603  1
