# generated using pymatgen
data_HfTaTiNbMoC5
_symmetry_space_group_name_H-M   'P 1'
_cell_length_a   7.06386526
_cell_length_b   4.47508183
_cell_length_c   7.06553538
_cell_angle_alpha   90.00237553
_cell_angle_beta   89.91635821
_cell_angle_gamma   90.00299252
_symmetry_Int_Tables_number   1
_chemical_formula_structural   HfTaTiNbMoC5
_chemical_formula_sum   'Hf2 Ta2 Ti2 Nb2 Mo2 C10'
_cell_volume   223.35105047
_cell_formula_units_Z   2
loop_
 _symmetry_equiv_pos_site_id
 _symmetry_equiv_pos_as_xyz
  1  'x, y, z'
loop_
 _atom_site_type_symbol
 _atom_site_label
 _atom_site_symmetry_multiplicity
 _atom_site_fract_x
 _atom_site_fract_y
 _atom_site_fract_z
 _atom_site_occupancy
  Hf  Hf0  1  0.59701920  -0.00037842  0.20169439  1
  Hf  Hf1  1  0.90620216  0.50013203  0.30218398  1
  Ta  Ta2  1  0.39338728  1.00041458  0.79541100  1
  Ta  Ta3  1  0.69765857  0.50000246  0.89481153  1
  Ti  Ti4  1  0.49330872  0.50010052  0.49380364  1
  Ti  Ti5  1  0.20223416  0.99991049  0.39898237  1
  Nb  Nb6  1  0.80111008  1.00012403  0.60709159  1
  Nb  Nb7  1  0.10294900  0.50019700  0.70829896  1
  Mo  Mo8  1  0.28935468  0.49296277  0.10559132  1
  Mo  Mo9  1  0.01972099  -0.00020295  0.00454982  1
  C  C10  1  0.70060771  1.00028750  0.89754276  1
  C  C11  1  0.49303617  0.00028141  0.50372092  1
  C  C12  1  0.59187811  0.50030566  0.19749818  1
  C  C13  1  0.91078985  0.00009029  0.29705583  1
  C  C14  1  0.99971723  0.50073433  0.99626680  1
  C  C15  1  0.29441866  0.00470779  0.09783642  1
  C  C16  1  0.40156070  0.50070522  0.79853634  1
  C  C17  1  0.79263682  0.50011433  0.60336093  1
  C  C18  1  0.10101550  0.00014701  0.69848903  1
  C  C19  1  0.21029835  0.50061172  0.39649592  1
