# generated using pymatgen
data_HfTaTiNbMoC5
_symmetry_space_group_name_H-M   'P 1'
_cell_length_a   7.06236589
_cell_length_b   4.47737295
_cell_length_c   7.06461944
_cell_angle_alpha   89.98897851
_cell_angle_beta   89.91813032
_cell_angle_gamma   89.99121755
_symmetry_Int_Tables_number   1
_chemical_formula_structural   HfTaTiNbMoC5
_chemical_formula_sum   'Hf2 Ta2 Ti2 Nb2 Mo2 C10'
_cell_volume   223.38900867
_cell_formula_units_Z   2
loop_
 _symmetry_equiv_pos_site_id
 _symmetry_equiv_pos_as_xyz
  1  'x, y, z'
loop_
 _atom_site_type_symbol
 _atom_site_label
 _atom_site_symmetry_multiplicity
 _atom_site_fract_x
 _atom_site_fract_y
 _atom_site_fract_z
 _atom_site_occupancy
  Hf  Hf0  1  0.59703037  0.00046813  0.20157458  1
  Hf  Hf1  1  0.90652411  0.49988132  0.30237284  1
  Ta  Ta2  1  0.39358266  0.99966020  0.79560235  1
  Ta  Ta3  1  0.69776650  0.49966008  0.89511309  1
  Ti  Ti4  1  0.49317916  0.49965951  0.49403400  1
  Ti  Ti5  1  0.20213083  0.00011371  0.39984587  1
  Nb  Nb6  1  0.80096078  -0.00024242  0.60724464  1
  Nb  Nb7  1  0.10303055  0.49982719  0.70812883  1
  Mo  Mo8  1  0.28945687  0.50998972  0.10543363  1
  Mo  Mo9  1  0.01970472  0.00276837  0.00378163  1
  C  C10  1  0.70061479  0.99931781  0.89788475  1
  C  C11  1  0.49306819  -0.00066111  0.50357254  1
  C  C12  1  0.59182361  0.49955133  0.19739598  1
  C  C13  1  0.91084216  0.99982944  0.29721316  1
  C  C14  1  -0.00008576  0.49771516  0.99642246  1
  C  C15  1  0.29477159  0.99417919  0.09810335  1
  C  C16  1  0.40144622  0.49895072  0.79893409  1
  C  C17  1  0.79280119  0.49974068  0.60328832  1
  C  C18  1  0.10094181  0.99962200  0.69849832  1
  C  C19  1  0.21030938  0.49897552  0.39649174  1
