# generated using pymatgen
data_HfTaTiNbMoC5
_symmetry_space_group_name_H-M   'P 1'
_cell_length_a   7.06083983
_cell_length_b   4.48045861
_cell_length_c   7.06422970
_cell_angle_alpha   90.01230691
_cell_angle_beta   89.92871179
_cell_angle_gamma   89.99788106
_symmetry_Int_Tables_number   1
_chemical_formula_structural   HfTaTiNbMoC5
_chemical_formula_sum   'Hf2 Ta2 Ti2 Nb2 Mo2 C10'
_cell_volume   223.48238373
_cell_formula_units_Z   2
loop_
 _symmetry_equiv_pos_site_id
 _symmetry_equiv_pos_as_xyz
  1  'x, y, z'
loop_
 _atom_site_type_symbol
 _atom_site_label
 _atom_site_symmetry_multiplicity
 _atom_site_fract_x
 _atom_site_fract_y
 _atom_site_fract_z
 _atom_site_occupancy
  Hf  Hf0  1  0.59706054  0.99960510  0.20135697  1
  Hf  Hf1  1  0.90623680  0.49924608  0.30268490  1
  Ta  Ta2  1  0.39394957  1.00046295  0.79534821  1
  Ta  Ta3  1  0.69763532  0.50023775  0.89506112  1
  Ti  Ti4  1  0.49342869  0.50009268  0.49351977  1
  Ti  Ti5  1  0.20206536  0.99998710  0.39975956  1
  Nb  Nb6  1  0.80097504  1.00000376  0.60712520  1
  Nb  Nb7  1  0.10331598  0.49979828  0.70801697  1
  Mo  Mo8  1  0.28902980  0.49332350  0.10568323  1
  Mo  Mo9  1  0.01971572  0.98953514  0.00321562  1
  C  C10  1  0.70098051  1.00075568  0.89772878  1
  C  C11  1  0.49315736  0.00006373  0.50338913  1
  C  C12  1  0.59205590  0.50023869  0.19728863  1
  C  C13  1  0.91105383  1.00001643  0.29763809  1
  C  C14  1  0.00017536  0.50615840  0.99707653  1
  C  C15  1  0.29477998  0.00557150  0.09829078  1
  C  C16  1  0.40182951  0.50065131  0.79872393  1
  C  C17  1  0.79287561  0.49995610  0.60344330  1
  C  C18  1  0.10105674  0.00048659  0.69893232  1
  C  C19  1  0.21025303  0.50049290  0.39697285  1
