# generated using pymatgen
data_HfTaTiNbMoC5
_symmetry_space_group_name_H-M   'P 1'
_cell_length_a   7.07448418
_cell_length_b   4.46807969
_cell_length_c   7.07696686
_cell_angle_alpha   89.99730695
_cell_angle_beta   89.91962436
_cell_angle_gamma   89.99704801
_symmetry_Int_Tables_number   1
_chemical_formula_structural   HfTaTiNbMoC5
_chemical_formula_sum   'Hf2 Ta2 Ti2 Nb2 Mo2 C10'
_cell_volume   223.69816603
_cell_formula_units_Z   2
loop_
 _symmetry_equiv_pos_site_id
 _symmetry_equiv_pos_as_xyz
  1  'x, y, z'
loop_
 _atom_site_type_symbol
 _atom_site_label
 _atom_site_symmetry_multiplicity
 _atom_site_fract_x
 _atom_site_fract_y
 _atom_site_fract_z
 _atom_site_occupancy
  Hf  Hf0  1  0.59747060  0.00022768  0.20215703  1
  Hf  Hf1  1  0.90740210  0.50039703  0.30241170  1
  Ta  Ta2  1  0.39372196  0.99999353  0.79798093  1
  Ta  Ta3  1  0.69896140  0.49959385  0.89723124  1
  Ti  Ti4  1  0.49308035  0.49986719  0.49525818  1
  Ti  Ti5  1  0.20251348  1.00010978  0.40009842  1
  Nb  Nb6  1  0.79930018  0.00027150  0.60678007  1
  Nb  Nb7  1  0.10228318  0.50050406  0.70569675  1
  Mo  Mo8  1  0.28620189  0.50441064  0.10307250  1
  Mo  Mo9  1  0.02062989  0.00499025  -0.00147293  1
  C  C10  1  0.70092205  -0.00034719  0.89915305  1
  C  C11  1  0.49318445  0.99991826  0.50433210  1
  C  C12  1  0.59256607  0.49974014  0.19878911  1
  C  C13  1  0.91064005  0.99996508  0.29798658  1
  C  C14  1  0.00081541  0.49713686  0.99513441  1
  C  C15  1  0.29583301  -0.00360597  0.09891087  1
  C  C16  1  0.40096681  0.49929009  0.80070323  1
  C  C17  1  0.79125424  0.50007700  0.60324209  1
  C  C18  1  0.10104496  1.00008116  0.69685243  1
  C  C19  1  0.21054824  0.49964026  0.39615115  1
