# generated using pymatgen
data_HfTaTiNbMoC5
_symmetry_space_group_name_H-M   'P 1'
_cell_length_a   7.07362593
_cell_length_b   4.46473995
_cell_length_c   7.07663753
_cell_angle_alpha   90.00759019
_cell_angle_beta   89.90979156
_cell_angle_gamma   89.99752126
_symmetry_Int_Tables_number   1
_chemical_formula_structural   HfTaTiNbMoC5
_chemical_formula_sum   'Hf2 Ta2 Ti2 Nb2 Mo2 C10'
_cell_volume   223.49338179
_cell_formula_units_Z   2
loop_
 _symmetry_equiv_pos_site_id
 _symmetry_equiv_pos_as_xyz
  1  'x, y, z'
loop_
 _atom_site_type_symbol
 _atom_site_label
 _atom_site_symmetry_multiplicity
 _atom_site_fract_x
 _atom_site_fract_y
 _atom_site_fract_z
 _atom_site_occupancy
  Hf  Hf0  1  0.59731631  -0.00002282  0.20209975  1
  Hf  Hf1  1  0.90646410  0.49928093  0.30240023  1
  Ta  Ta2  1  0.39343594  -0.00007342  0.79565742  1
  Ta  Ta3  1  0.69738853  0.50013837  0.89530706  1
  Ti  Ti4  1  0.49333031  0.49990166  0.49408562  1
  Ti  Ti5  1  0.20218002  0.99999189  0.39838038  1
  Nb  Nb6  1  0.80091177  0.99984677  0.60729876  1
  Nb  Nb7  1  0.10294324  0.49968088  0.70760387  1
  Mo  Mo8  1  0.28908771  0.49969435  0.10556465  1
  Mo  Mo9  1  0.02041755  0.98916695  0.00199612  1
  C  C10  1  0.70049858  1.00070549  0.89807667  1
  C  C11  1  0.49325656  -0.00001242  0.50413329  1
  C  C12  1  0.59213858  0.50003796  0.19767706  1
  C  C13  1  0.91061117  -0.00007116  0.29773986  1
  C  C14  1  0.00017192  0.50572842  0.99623030  1
  C  C15  1  0.29430276  1.00179641  0.09789158  1
  C  C16  1  0.40157371  0.50018104  0.79880502  1
  C  C17  1  0.79268112  0.49992539  0.60375976  1
  C  C18  1  0.10138764  0.00030482  0.69829902  1
  C  C19  1  0.21038728  0.50020218  0.39659154  1
