# generated using pymatgen
data_HfTaTiNbMoC5
_symmetry_space_group_name_H-M   'P 1'
_cell_length_a   7.07147372
_cell_length_b   4.46725702
_cell_length_c   7.07507881
_cell_angle_alpha   89.99214062
_cell_angle_beta   89.91785641
_cell_angle_gamma   90.00918739
_symmetry_Int_Tables_number   1
_chemical_formula_structural   HfTaTiNbMoC5
_chemical_formula_sum   'Hf2 Ta2 Ti2 Nb2 Mo2 C10'
_cell_volume   223.50214608
_cell_formula_units_Z   2
loop_
 _symmetry_equiv_pos_site_id
 _symmetry_equiv_pos_as_xyz
  1  'x, y, z'
loop_
 _atom_site_type_symbol
 _atom_site_label
 _atom_site_symmetry_multiplicity
 _atom_site_fract_x
 _atom_site_fract_y
 _atom_site_fract_z
 _atom_site_occupancy
  Hf  Hf0  1  0.59721347  0.99951781  0.20204703  1
  Hf  Hf1  1  0.90617808  0.50072440  0.30250447  1
  Ta  Ta2  1  0.39354889  0.99985601  0.79539763  1
  Ta  Ta3  1  0.69733880  0.49983923  0.89512160  1
  Ti  Ti4  1  0.49333463  0.49999195  0.49392603  1
  Ti  Ti5  1  0.20201144  0.99931655  0.39863892  1
  Nb  Nb6  1  0.80104076  -0.00008886  0.60735736  1
  Nb  Nb7  1  0.10310667  0.50014792  0.70764702  1
  Mo  Mo8  1  0.28937552  0.49205262  0.10555661  1
  Mo  Mo9  1  0.02011944  0.01139118  0.00257011  1
  C  C10  1  0.70061507  0.99913969  0.89803375  1
  C  C11  1  0.49318687  1.00018901  0.50410162  1
  C  C12  1  0.59197867  0.50010905  0.19768817  1
  C  C13  1  0.91067827  0.00000609  0.29769617  1
  C  C14  1  -0.00000337  0.49523537  0.99634943  1
  C  C15  1  0.29424193  0.00276859  0.09798877  1
  C  C16  1  0.40160651  0.50016133  0.79852974  1
  C  C17  1  0.79268534  0.49995600  0.60379472  1
  C  C18  1  0.10133619  0.99936664  0.69854972  1
  C  C19  1  0.21027155  0.50014834  0.39663000  1
