# generated using pymatgen
data_HfTaTiNbMoC5
_symmetry_space_group_name_H-M   'P 1'
_cell_length_a   7.05770666
_cell_length_b   4.48174126
_cell_length_c   7.06098841
_cell_angle_alpha   89.99071796
_cell_angle_beta   89.93295135
_cell_angle_gamma   90.00273610
_symmetry_Int_Tables_number   1
_chemical_formula_structural   HfTaTiNbMoC5
_chemical_formula_sum   'Hf2 Ta2 Ti2 Nb2 Mo2 C10'
_cell_volume   223.34466274
_cell_formula_units_Z   2
loop_
 _symmetry_equiv_pos_site_id
 _symmetry_equiv_pos_as_xyz
  1  'x, y, z'
loop_
 _atom_site_type_symbol
 _atom_site_label
 _atom_site_symmetry_multiplicity
 _atom_site_fract_x
 _atom_site_fract_y
 _atom_site_fract_z
 _atom_site_occupancy
  Hf  Hf0  1  0.59716610  -0.00011846  0.20123381  1
  Hf  Hf1  1  0.90582317  0.50066250  0.30275252  1
  Ta  Ta2  1  0.39403631  -0.00015507  0.79501280  1
  Ta  Ta3  1  0.69751184  0.50001067  0.89482178  1
  Ti  Ti4  1  0.49359806  0.49993661  0.49286184  1
  Ti  Ti5  1  0.20204258  0.99995817  0.39939269  1
  Nb  Nb6  1  0.80103657  -0.00014206  0.60706244  1
  Nb  Nb7  1  0.10324571  0.50031130  0.70876315  1
  Mo  Mo8  1  0.28869341  0.49818920  0.10614104  1
  Mo  Mo9  1  0.01998657  1.00839215  0.00409130  1
  C  C10  1  0.70084101  0.99963850  0.89733130  1
  C  C11  1  0.49311327  0.00015363  0.50325752  1
  C  C12  1  0.59208388  0.50003789  0.19715424  1
  C  C13  1  0.91122842  0.00011447  0.29773099  1
  C  C14  1  0.00026608  0.49552879  0.99743062  1
  C  C15  1  0.29441603  0.99962934  0.09805113  1
  C  C16  1  0.40208043  0.50002341  0.79831172  1
  C  C17  1  0.79266897  0.50020508  0.60348119  1
  C  C18  1  0.10089842  -0.00049958  0.69937072  1
  C  C19  1  0.21026574  0.49973833  0.39717905  1
