# generated using pymatgen
data_HfTaTiNbWC5
_symmetry_space_group_name_H-M   'P 1'
_cell_length_a   7.07773359
_cell_length_b   4.47703582
_cell_length_c   7.05389053
_cell_angle_alpha   89.99865162
_cell_angle_beta   89.94142280
_cell_angle_gamma   89.99825296
_symmetry_Int_Tables_number   1
_chemical_formula_structural   HfTaTiNbWC5
_chemical_formula_sum   'Hf2 Ta2 Ti2 Nb2 W2 C10'
_cell_volume   223.51839399
_cell_formula_units_Z   2
loop_
 _symmetry_equiv_pos_site_id
 _symmetry_equiv_pos_as_xyz
  1  'x, y, z'
loop_
 _atom_site_type_symbol
 _atom_site_label
 _atom_site_symmetry_multiplicity
 _atom_site_fract_x
 _atom_site_fract_y
 _atom_site_fract_z
 _atom_site_occupancy
  Hf  Hf0  1  0.40167408  0.00007781  0.80455478  1
  Hf  Hf1  1  0.10377948  0.50009136  0.69316655  1
  Ta  Ta2  1  0.70023480  0.50007878  0.90603330  1
  Ta  Ta3  1  0.99588673  0.99988447  0.01293545  1
  Ti  Ti4  1  0.29671883  0.49966805  0.10909082  1
  Ti  Ti5  1  0.59305835  0.99999838  0.20315495  1
  Nb  Nb6  1  0.50785391  0.50007689  0.49401537  1
  Nb  Nb7  1  0.80574028  -0.00014003  0.58802122  1
  W  W8  1  0.21357844  0.99888067  0.39051126  1
  W  W9  1  0.88607839  0.49615869  0.29292682  1
  C  C10  1  0.70503085  1.00002608  0.90713890  1
  C  C11  1  0.49705862  1.00036302  0.49193405  1
  C  C12  1  0.59921392  0.50044801  0.19804745  1
  C  C13  1  0.89963199  1.00198368  0.29996567  1
  C  C14  1  0.00018246  0.50033288  0.01007124  1
  C  C15  1  0.29776798  0.00028498  0.10823480  1
  C  C16  1  0.40532216  0.50014147  0.80794383  1
  C  C17  1  0.79864341  0.50031520  0.59618354  1
  C  C18  1  0.09823969  1.00018695  0.69693789  1
  C  C19  1  0.19503485  0.50085157  0.38948640  1
