# generated using pymatgen
data_HfTaTiNbVC5
_symmetry_space_group_name_H-M   'P 1'
_cell_length_a   7.01267151
_cell_length_b   4.45469400
_cell_length_c   7.01268752
_cell_angle_alpha   89.99914147
_cell_angle_beta   90.02762175
_cell_angle_gamma   90.00026025
_symmetry_Int_Tables_number   1
_chemical_formula_structural   HfTaTiNbVC5
_chemical_formula_sum   'Hf2 Ta2 Ti2 Nb2 V2 C10'
_cell_volume   219.07146390
_cell_formula_units_Z   2
loop_
 _symmetry_equiv_pos_site_id
 _symmetry_equiv_pos_as_xyz
  1  'x, y, z'
loop_
 _atom_site_type_symbol
 _atom_site_label
 _atom_site_symmetry_multiplicity
 _atom_site_fract_x
 _atom_site_fract_y
 _atom_site_fract_z
 _atom_site_occupancy
  Hf  Hf0  1  0.50079179  0.50020450  0.49830377  1
  Hf  Hf1  1  0.79981896  0.00011346  0.60806939  1
  Ta  Ta2  1  0.19885965  0.00019677  0.39310205  1
  Ta  Ta3  1  0.89984945  0.50022901  0.28417792  1
  Ti  Ti4  1  0.30343032  0.50009437  0.09416386  1
  Ti  Ti5  1  0.60171706  0.00023739  0.19036418  1
  Nb  Nb6  1  0.39916077  1.00021869  0.81330887  1
  Nb  Nb7  1  0.09816707  0.50000373  0.71329569  1
  V  V8  1  0.70290326  0.49664315  0.90925669  1
  V  V9  1  0.99324520  0.99464797  0.99914966  1
  C  C10  1  0.70706597  1.00257602  0.91085302  1
  C  C11  1  0.49550299  0.00021256  0.49268833  1
  C  C12  1  0.60011621  0.50045144  0.18713020  1
  C  C13  1  0.90041262  0.00030488  0.28852438  1
  C  C14  1  0.99551157  0.50377345  -0.00124662  1
  C  C15  1  0.29363121  0.00045742  0.10084190  1
  C  C16  1  0.40917265  0.50044805  0.81063063  1
  C  C17  1  0.80261738  0.50031684  0.60568331  1
  C  C18  1  0.10344881  0.00038542  0.70764565  1
  C  C19  1  0.19442508  0.50020276  0.39429491  1
