# generated using pymatgen
data_HfTaTiNbMoC5
_symmetry_space_group_name_H-M   'P 1'
_cell_length_a   7.05407333
_cell_length_b   4.48609159
_cell_length_c   7.06069235
_cell_angle_alpha   90.01017486
_cell_angle_beta   89.95712459
_cell_angle_gamma   90.00271769
_symmetry_Int_Tables_number   1
_chemical_formula_structural   HfTaTiNbMoC5
_chemical_formula_sum   'Hf2 Ta2 Ti2 Nb2 Mo2 C10'
_cell_volume   223.43708968
_cell_formula_units_Z   2
loop_
 _symmetry_equiv_pos_site_id
 _symmetry_equiv_pos_as_xyz
  1  'x, y, z'
loop_
 _atom_site_type_symbol
 _atom_site_label
 _atom_site_symmetry_multiplicity
 _atom_site_fract_x
 _atom_site_fract_y
 _atom_site_fract_z
 _atom_site_occupancy
  Hf  Hf0  1  0.59640096  -0.00031279  0.20087745  1
  Hf  Hf1  1  0.90567195  0.49971193  0.30296657  1
  Ta  Ta2  1  0.39457904  -0.00017581  0.79482345  1
  Ta  Ta3  1  0.69784469  0.50016183  0.89508763  1
  Ti  Ti4  1  0.49342337  0.50013171  0.49275319  1
  Ti  Ti5  1  0.20177363  0.00008408  0.40037669  1
  Nb  Nb6  1  0.80112682  1.00009484  0.60711043  1
  Nb  Nb7  1  0.10384540  0.50000614  0.70839179  1
  Mo  Mo8  1  0.28595393  0.49608226  0.10510125  1
  Mo  Mo9  1  0.02031987  0.99712846  0.00383227  1
  C  C10  1  0.70108874  0.00034009  0.89750728  1
  C  C11  1  0.49319807  1.00028831  0.50267060  1
  C  C12  1  0.59207161  0.50002068  0.19686623  1
  C  C13  1  0.91113288  0.99986112  0.29741021  1
  C  C14  1  0.00074730  0.50152107  0.99768695  1
  C  C15  1  0.29492875  0.00314200  0.09818230  1
  C  C16  1  0.40220937  0.50043367  0.79861827  1
  C  C17  1  0.79304195  0.49992040  0.60335126  1
  C  C18  1  0.10104124  0.00011106  0.69899013  1
  C  C19  1  0.20992075  0.50029074  0.39698893  1
