# generated using pymatgen
data_HfTaTiNbVC5
_symmetry_space_group_name_H-M   'P 1'
_cell_length_a   7.00420347
_cell_length_b   4.45380595
_cell_length_c   7.02278963
_cell_angle_alpha   90.00324267
_cell_angle_beta   89.73248354
_cell_angle_gamma   90.00287831
_symmetry_Int_Tables_number   1
_chemical_formula_structural   HfTaTiNbVC5
_chemical_formula_sum   'Hf2 Ta2 Ti2 Nb2 V2 C10'
_cell_volume   219.07608366
_cell_formula_units_Z   2
loop_
 _symmetry_equiv_pos_site_id
 _symmetry_equiv_pos_as_xyz
  1  'x, y, z'
loop_
 _atom_site_type_symbol
 _atom_site_label
 _atom_site_symmetry_multiplicity
 _atom_site_fract_x
 _atom_site_fract_y
 _atom_site_fract_z
 _atom_site_occupancy
  Hf  Hf0  1  0.49909007  0.50001302  0.49750321  1
  Hf  Hf1  1  0.80105543  1.00010103  0.60771601  1
  Ta  Ta2  1  0.19751249  -0.00008075  0.39250882  1
  Ta  Ta3  1  0.89779651  0.49993971  0.28572410  1
  Ti  Ti4  1  0.30286343  0.49993101  0.09389390  1
  Ti  Ti5  1  0.60057390  0.00003922  0.19021439  1
  Nb  Nb6  1  0.40095329  0.99996448  0.81263056  1
  Nb  Nb7  1  0.09943593  0.49999383  0.71494890  1
  V  V8  1  0.70423032  0.50028627  0.90912409  1
  V  V9  1  0.99490884  1.00093097  0.00177001  1
  C  C10  1  0.70843594  -0.00002120  0.91076184  1
  C  C11  1  0.49474305  1.00003968  0.49286887  1
  C  C12  1  0.59866580  0.50006466  0.18657963  1
  C  C13  1  0.89905762  -0.00005322  0.28809525  1
  C  C14  1  0.99661882  0.49919852  0.00002592  1
  C  C15  1  0.29377339  -0.00010861  0.10056456  1
  C  C16  1  0.41047293  0.49996406  0.80991347  1
  C  C17  1  0.80292388  0.50010121  0.60472948  1
  C  C18  1  0.10485410  0.00002024  0.70825765  1
  C  C19  1  0.19293676  0.50002896  0.39375574  1
