# generated using pymatgen
data_HfTaTiNbVC5
_symmetry_space_group_name_H-M   'P 1'
_cell_length_a   7.02088639
_cell_length_b   4.44753587
_cell_length_c   7.01734935
_cell_angle_alpha   90.00259765
_cell_angle_beta   90.01592301
_cell_angle_gamma   90.00328116
_symmetry_Int_Tables_number   1
_chemical_formula_structural   HfTaTiNbVC5
_chemical_formula_sum   'Hf2 Ta2 Ti2 Nb2 V2 C10'
_cell_volume   219.12124418
_cell_formula_units_Z   2
loop_
 _symmetry_equiv_pos_site_id
 _symmetry_equiv_pos_as_xyz
  1  'x, y, z'
loop_
 _atom_site_type_symbol
 _atom_site_label
 _atom_site_symmetry_multiplicity
 _atom_site_fract_x
 _atom_site_fract_y
 _atom_site_fract_z
 _atom_site_occupancy
  Hf  Hf0  1  0.50071794  0.50007765  0.49803401  1
  Hf  Hf1  1  0.79920397  1.00016236  0.60793080  1
  Ta  Ta2  1  0.19895544  1.00013435  0.39291911  1
  Ta  Ta3  1  0.89960028  0.50004151  0.28433250  1
  Ti  Ti4  1  0.30352553  0.49986278  0.09408973  1
  Ti  Ti5  1  0.60175010  0.00019610  0.19029134  1
  Nb  Nb6  1  0.39923484  0.00020362  0.81266922  1
  Nb  Nb7  1  0.09809146  0.49989307  0.71326245  1
  V  V8  1  0.70318841  0.50258714  0.90911596  1
  V  V9  1  0.99345313  0.99381581  0.99919257  1
  C  C10  1  0.70711073  -0.00079824  0.91111490  1
  C  C11  1  0.49524612  0.99999668  0.49225571  1
  C  C12  1  0.60014580  0.49965808  0.18681495  1
  C  C13  1  0.90054008  1.00029597  0.28885357  1
  C  C14  1  0.99543436  0.50339603  -0.00115252  1
  C  C15  1  0.29385992  1.00035248  0.10084970  1
  C  C16  1  0.40927857  0.50015270  0.81071541  1
  C  C17  1  0.80257002  0.50003633  0.60587765  1
  C  C18  1  0.10308526  1.00022085  0.70762822  1
  C  C19  1  0.19431483  0.50005860  0.39424259  1
