# generated using pymatgen
data_HfTaTiNbVC5
_symmetry_space_group_name_H-M   'P 1'
_cell_length_a   7.00742987
_cell_length_b   4.45947545
_cell_length_c   7.01058175
_cell_angle_alpha   89.99984559
_cell_angle_beta   90.04355267
_cell_angle_gamma   89.99647973
_symmetry_Int_Tables_number   1
_chemical_formula_structural   HfTaTiNbVC5
_chemical_formula_sum   'Hf2 Ta2 Ti2 Nb2 V2 C10'
_cell_volume   219.07684072
_cell_formula_units_Z   2
loop_
 _symmetry_equiv_pos_site_id
 _symmetry_equiv_pos_as_xyz
  1  'x, y, z'
loop_
 _atom_site_type_symbol
 _atom_site_label
 _atom_site_symmetry_multiplicity
 _atom_site_fract_x
 _atom_site_fract_y
 _atom_site_fract_z
 _atom_site_occupancy
  Hf  Hf0  1  0.50063941  0.49998114  0.49829466  1
  Hf  Hf1  1  0.80002525  -0.00012135  0.60824103  1
  Ta  Ta2  1  0.19877753  0.00004641  0.39306737  1
  Ta  Ta3  1  0.89993180  0.50011392  0.28424450  1
  Ti  Ti4  1  0.30340665  0.49987357  0.09406322  1
  Ti  Ti5  1  0.60166811  -0.00002668  0.19040280  1
  Nb  Nb6  1  0.39909674  1.00000071  0.81343135  1
  Nb  Nb7  1  0.09818710  0.49989104  0.71332447  1
  V  V8  1  0.70298052  0.49567560  0.90941695  1
  V  V9  1  0.99319288  0.99538013  0.99928128  1
  C  C10  1  0.70693078  0.00273867  0.91060957  1
  C  C11  1  0.49561288  0.00003700  0.49284166  1
  C  C12  1  0.60006663  0.50034967  0.18730072  1
  C  C13  1  0.90027182  1.00012515  0.28828623  1
  C  C14  1  0.99554677  0.50311762  -0.00124811  1
  C  C15  1  0.29368674  0.00015563  0.10083493  1
  C  C16  1  0.40924048  0.50014284  0.81053754  1
  C  C17  1  0.80261529  0.50017219  0.60558199  1
  C  C18  1  0.10361254  1.00018265  0.70756710  1
  C  C19  1  0.19452662  0.50001138  0.39428041  1
