# generated using pymatgen
data_HfTaTiNbVC5
_symmetry_space_group_name_H-M   'P 1'
_cell_length_a   7.01066015
_cell_length_b   4.45751790
_cell_length_c   7.01125215
_cell_angle_alpha   90.00129065
_cell_angle_beta   90.02836342
_cell_angle_gamma   90.00427060
_symmetry_Int_Tables_number   1
_chemical_formula_structural   HfTaTiNbVC5
_chemical_formula_sum   'Hf2 Ta2 Ti2 Nb2 V2 C10'
_cell_volume   219.10260543
_cell_formula_units_Z   2
loop_
 _symmetry_equiv_pos_site_id
 _symmetry_equiv_pos_as_xyz
  1  'x, y, z'
loop_
 _atom_site_type_symbol
 _atom_site_label
 _atom_site_symmetry_multiplicity
 _atom_site_fract_x
 _atom_site_fract_y
 _atom_site_fract_z
 _atom_site_occupancy
  Hf  Hf0  1  0.50033928  0.50011037  0.49801203  1
  Hf  Hf1  1  0.80018356  0.00020923  0.60823307  1
  Ta  Ta2  1  0.19844586  1.00017664  0.39294844  1
  Ta  Ta3  1  0.89965077  0.49999183  0.28424718  1
  Ti  Ti4  1  0.30321996  0.49999701  0.09399868  1
  Ti  Ti5  1  0.60156361  0.00017137  0.19023798  1
  Nb  Nb6  1  0.39950802  1.00020142  0.81331621  1
  Nb  Nb7  1  0.09855329  0.49994170  0.71339932  1
  V  V8  1  0.70330311  0.50334429  0.90926003  1
  V  V9  1  0.99388493  0.99523728  0.99939061  1
  C  C10  1  0.70728113  -0.00118382  0.91044780  1
  C  C11  1  0.49561030  1.00004349  0.49286309  1
  C  C12  1  0.59990888  0.49972563  0.18727510  1
  C  C13  1  0.89992202  0.00022121  0.28822188  1
  C  C14  1  0.99596022  0.50224348  -0.00119143  1
  C  C15  1  0.29372894  1.00028646  0.10062491  1
  C  C16  1  0.40960513  0.50010441  0.81039542  1
  C  C17  1  0.80250579  0.49996617  0.60553786  1
  C  C18  1  0.10383016  0.00004511  0.70772556  1
  C  C19  1  0.19444722  0.50014127  0.39419244  1
