# generated using pymatgen
data_HfTaTiNbVC5
_symmetry_space_group_name_H-M   'P 1'
_cell_length_a   7.02423624
_cell_length_b   4.44338109
_cell_length_c   7.02000101
_cell_angle_alpha   90.00201712
_cell_angle_beta   90.00983520
_cell_angle_gamma   90.00392418
_symmetry_Int_Tables_number   1
_chemical_formula_structural   HfTaTiNbVC5
_chemical_formula_sum   'Hf2 Ta2 Ti2 Nb2 V2 C10'
_cell_volume   219.10376425
_cell_formula_units_Z   2
loop_
 _symmetry_equiv_pos_site_id
 _symmetry_equiv_pos_as_xyz
  1  'x, y, z'
loop_
 _atom_site_type_symbol
 _atom_site_label
 _atom_site_symmetry_multiplicity
 _atom_site_fract_x
 _atom_site_fract_y
 _atom_site_fract_z
 _atom_site_occupancy
  Hf  Hf0  1  0.50032105  0.49995503  0.49784506  1
  Hf  Hf1  1  0.79959396  0.00014578  0.60801266  1
  Ta  Ta2  1  0.19844946  0.99996770  0.39292874  1
  Ta  Ta3  1  0.89914514  0.49993628  0.28449608  1
  Ti  Ti4  1  0.30330651  0.49999255  0.09374237  1
  Ti  Ti5  1  0.60147050  0.00005324  0.19010083  1
  Nb  Nb6  1  0.39992867  0.00009809  0.81283261  1
  Nb  Nb7  1  0.09852800  0.49996751  0.71356048  1
  V  V8  1  0.70378377  0.50399263  0.90916697  1
  V  V9  1  0.99432503  -0.00031128  0.99929597  1
  C  C10  1  0.70765483  -0.00212430  0.91109892  1
  C  C11  1  0.49531295  -0.00006547  0.49238223  1
  C  C12  1  0.59999483  0.49959364  0.18669415  1
  C  C13  1  0.90017129  1.00000033  0.28889505  1
  C  C14  1  0.99588341  0.49962567  -0.00108135  1
  C  C15  1  0.29384884  0.99998600  0.10039577  1
  C  C16  1  0.40977804  0.49991341  0.81041741  1
  C  C17  1  0.80251258  0.49995070  0.60603259  1
  C  C18  1  0.10354200  0.99997158  0.70797547  1
  C  C19  1  0.19418718  0.49997371  0.39424860  1
