# generated using pymatgen
data_Ti31FeN32
_symmetry_space_group_name_H-M   'P 1'
_cell_length_a   18.39944363
_cell_length_b   9.30632024
_cell_length_c   4.22949580
_cell_angle_alpha   90.00016075
_cell_angle_beta   90.00081962
_cell_angle_gamma   98.22253805
_symmetry_Int_Tables_number   1
_chemical_formula_structural   Ti31FeN32
_chemical_formula_sum   'Ti31 Fe1 N32'
_cell_volume   716.77632084
_cell_formula_units_Z   1
loop_
 _symmetry_equiv_pos_site_id
 _symmetry_equiv_pos_as_xyz
  1  'x, y, z'
loop_
 _atom_site_type_symbol
 _atom_site_label
 _atom_site_symmetry_multiplicity
 _atom_site_fract_x
 _atom_site_fract_y
 _atom_site_fract_z
 _atom_site_occupancy
  Ti  Ti0  1  0.16629923  0.33487098  0.06249878  1
  Ti  Ti1  1  0.29125028  0.08217505  0.06261512  1
  Ti  Ti2  1  0.47900096  0.21003990  0.06237484  1
  Ti  Ti3  1  0.10439639  0.95923302  0.06263032  1
  Ti  Ti4  1  0.41658041  0.83659271  0.06311612  1
  Ti  Ti5  1  0.45930083  0.41943029  0.56247543  1
  Ti  Ti6  1  0.39569276  0.04315920  0.56242374  1
  Ti  Ti7  1  0.02057832  0.79254873  0.56242075  1
  Ti  Ti8  1  0.23107232  0.70764556  0.06251806  1
  Ti  Ti9  1  0.35171140  0.45553102  0.06235921  1
  Ti  Ti10  1  0.04132090  0.58415811  0.06253700  1
  Ti  Ti11  1  0.33510298  0.66445352  0.56224721  1
  Ti  Ti12  1  0.14600937  0.54370822  0.56275144  1
  Ti  Ti13  1  0.27001966  0.29054862  0.56246000  1
  Ti  Ti14  1  0.08310000  0.16792029  0.56240788  1
  Ti  Ti15  1  0.20853750  0.91473850  0.56245611  1
  Ti  Ti16  1  0.66738572  0.33565374  0.06241036  1
  Ti  Ti17  1  0.79000544  0.08115284  0.06235236  1
  Ti  Ti18  1  0.97879274  0.21004537  0.06248900  1
  Ti  Ti19  1  0.60296040  0.96357315  0.06296312  1
  Ti  Ti20  1  0.91660898  0.83568582  0.06265539  1
  Ti  Ti21  1  0.95789160  0.41801596  0.56267065  1
  Ti  Ti22  1  0.89511967  0.04313024  0.56270310  1
  Ti  Ti23  1  0.52137241  0.78947914  0.56265806  1
  Ti  Ti24  1  0.73156983  0.71069103  0.06184408  1
  Ti  Ti25  1  0.85346461  0.45826679  0.06234515  1
  Ti  Ti26  1  0.83403182  0.66692293  0.56253645  1
  Ti  Ti27  1  0.64536860  0.54366201  0.56264863  1
  Ti  Ti28  1  0.77103523  0.29006028  0.56257888  1
  Ti  Ti29  1  0.58359976  0.17254471  0.56236268  1
  Ti  Ti30  1  0.70670409  0.91380644  0.56277718  1
  Fe  Fe31  1  0.54674474  0.53346886  0.06414549  1
  N  N32  1  0.23159804  0.70724479  0.56238848  1
  N  N33  1  0.35436854  0.45614320  0.56230948  1
  N  N34  1  0.04134066  0.58482267  0.56248020  1
  N  N35  1  0.16609212  0.33491287  0.56234171  1
  N  N36  1  0.29104747  0.08323182  0.56243009  1
  N  N37  1  0.47855810  0.21154620  0.56234953  1
  N  N38  1  0.10421644  0.95930897  0.56260941  1
  N  N39  1  0.41731101  0.83444633  0.56225737  1
  N  N40  1  0.33646574  0.66453282  0.06238980  1
  N  N41  1  0.45422263  0.41365409  0.06244134  1
  N  N42  1  0.14631142  0.54382119  0.06259239  1
  N  N43  1  0.27013145  0.28928827  0.06227951  1
  N  N44  1  0.39657553  0.04323711  0.06266823  1
  N  N45  1  0.08319702  0.16731868  0.06237691  1
  N  N46  1  0.20846339  0.91367492  0.06257336  1
  N  N47  1  0.02046611  0.79275287  0.06242661  1
  N  N48  1  0.72912268  0.70757713  0.56298973  1
  N  N49  1  0.85316177  0.45905643  0.56263591  1
  N  N50  1  0.54166636  0.58520699  0.56156316  1
  N  N51  1  0.66733274  0.33802659  0.56264468  1
  N  N52  1  0.78910148  0.07980451  0.56262382  1
  N  N53  1  0.97872769  0.21029753  0.56256790  1
  N  N54  1  0.60271996  0.96174330  0.56172063  1
  N  N55  1  0.91629050  0.83519398  0.56245934  1
  N  N56  1  0.83443832  0.66644403  0.06223335  1
  N  N57  1  0.95793972  0.41783591  0.06261705  1
  N  N58  1  0.65102040  0.54530486  0.06236933  1
  N  N59  1  0.77079460  0.28992590  0.06214152  1
  N  N60  1  0.89476726  0.04357958  0.06245024  1
  N  N61  1  0.58365774  0.17007769  0.06230150  1
  N  N62  1  0.70566570  0.91302215  0.06203482  1
  N  N63  1  0.52039254  0.80463018  0.06267543  1
