# generated using pymatgen
data_Ti31BN32
_symmetry_space_group_name_H-M   'P 1'
_cell_length_a   18.29952910
_cell_length_b   9.25866492
_cell_length_c   4.24412884
_cell_angle_alpha   89.95083053
_cell_angle_beta   90.01976183
_cell_angle_gamma   98.46845071
_symmetry_Int_Tables_number   1
_chemical_formula_structural   Ti31BN32
_chemical_formula_sum   'Ti31 B1 N32'
_cell_volume   711.23906081
_cell_formula_units_Z   1
loop_
 _symmetry_equiv_pos_site_id
 _symmetry_equiv_pos_as_xyz
  1  'x, y, z'
loop_
 _atom_site_type_symbol
 _atom_site_label
 _atom_site_symmetry_multiplicity
 _atom_site_fract_x
 _atom_site_fract_y
 _atom_site_fract_z
 _atom_site_occupancy
  Ti  Ti0  1  0.16865153  0.33455204  0.06253134  1
  Ti  Ti1  1  0.28985158  0.08649029  0.06491089  1
  Ti  Ti2  1  0.47946605  0.20777702  0.06156580  1
  Ti  Ti3  1  0.10380090  0.95947856  0.06193213  1
  Ti  Ti4  1  0.41259876  0.83570039  0.07211578  1
  Ti  Ti5  1  0.46519849  0.41883792  0.55009891  1
  Ti  Ti6  1  0.39374035  0.04352608  0.56674474  1
  Ti  Ti7  1  0.01981622  0.79234129  0.56211484  1
  Ti  Ti8  1  0.23024649  0.70691489  0.06401203  1
  Ti  Ti9  1  0.36284168  0.45542300  0.05909916  1
  Ti  Ti10  1  0.04164587  0.58523626  0.06200325  1
  Ti  Ti11  1  0.33444492  0.65857122  0.56630145  1
  Ti  Ti12  1  0.14656078  0.54131249  0.56265314  1
  Ti  Ti13  1  0.27389030  0.29608631  0.56208264  1
  Ti  Ti14  1  0.08376459  0.16835989  0.56207126  1
  Ti  Ti15  1  0.20809463  0.91432871  0.56312414  1
  Ti  Ti16  1  0.66742585  0.33444347  0.06007057  1
  Ti  Ti17  1  0.79122413  0.08204378  0.06498661  1
  Ti  Ti18  1  0.97910647  0.20962246  0.06219905  1
  Ti  Ti19  1  0.60769533  0.96447567  0.07248540  1
  Ti  Ti20  1  0.91422651  0.83185754  0.06267274  1
  Ti  Ti21  1  0.95840806  0.41767672  0.56238131  1
  Ti  Ti22  1  0.89542138  0.04111143  0.56310747  1
  Ti  Ti23  1  0.51952865  0.80544033  0.57809993  1
  Ti  Ti24  1  0.72215535  0.69508987  0.05939144  1
  Ti  Ti25  1  0.85336220  0.46133369  0.06336114  1
  Ti  Ti26  1  0.82999275  0.66626043  0.56197155  1
  Ti  Ti27  1  0.63943929  0.53614614  0.55016489  1
  Ti  Ti28  1  0.77182096  0.29046399  0.56306894  1
  Ti  Ti29  1  0.58408743  0.16889257  0.56567244  1
  Ti  Ti30  1  0.70965983  0.90834208  0.56710994  1
  B  B31  1  0.54683168  0.53116578  0.93896225  1
  N  N32  1  0.23092598  0.70717650  0.56398792  1
  N  N33  1  0.36359556  0.45500830  0.55877445  1
  N  N34  1  0.04205878  0.58554935  0.56209538  1
  N  N35  1  0.16851159  0.33409811  0.56262431  1
  N  N36  1  0.28932094  0.08647843  0.56506676  1
  N  N37  1  0.47839610  0.20953293  0.56183314  1
  N  N38  1  0.10364563  0.95954530  0.56197806  1
  N  N39  1  0.41257858  0.83358415  0.57165149  1
  N  N40  1  0.33422885  0.65465047  0.06613070  1
  N  N41  1  0.47933699  0.43727079  0.05596595  1
  N  N42  1  0.14649900  0.54079481  0.06268811  1
  N  N43  1  0.27495857  0.29903931  0.06211039  1
  N  N44  1  0.39396883  0.04472933  0.06677706  1
  N  N45  1  0.08416843  0.16826885  0.06206961  1
  N  N46  1  0.20793163  0.91377704  0.06312947  1
  N  N47  1  0.01944096  0.79247849  0.06205985  1
  N  N48  1  0.72195227  0.69367335  0.55892330  1
  N  N49  1  0.85375284  0.46204259  0.56359463  1
  N  N50  1  0.53953955  0.60234549  0.62769737  1
  N  N51  1  0.66762591  0.33720281  0.55982645  1
  N  N52  1  0.79053436  0.08123863  0.56521781  1
  N  N53  1  0.97883345  0.20991997  0.56214701  1
  N  N54  1  0.60815190  0.96275996  0.57244351  1
  N  N55  1  0.91450733  0.83217107  0.56262738  1
  N  N56  1  0.82860086  0.66731262  0.06195951  1
  N  N57  1  0.95827360  0.41771101  0.06256438  1
  N  N58  1  0.62368234  0.53439068  0.05546965  1
  N  N59  1  0.77170323  0.29086140  0.06298712  1
  N  N60  1  0.89575084  0.04112129  0.06309282  1
  N  N61  1  0.58374281  0.17050669  0.06538714  1
  N  N62  1  0.71084226  0.90543713  0.06715730  1
  N  N63  1  0.51811046  0.81911058  0.08206217  1
