# generated using pymatgen
data_MnAl31N32
_symmetry_space_group_name_H-M   'P 1'
_cell_length_a   8.14994122
_cell_length_b   8.15055979
_cell_length_c   8.14771217
_cell_angle_alpha   89.99563036
_cell_angle_beta   89.99755130
_cell_angle_gamma   90.00018888
_symmetry_Int_Tables_number   1
_chemical_formula_structural   MnAl31N32
_chemical_formula_sum   'Mn1 Al31 N32'
_cell_volume   541.22467799
_cell_formula_units_Z   1
loop_
 _symmetry_equiv_pos_site_id
 _symmetry_equiv_pos_as_xyz
  1  'x, y, z'
loop_
 _atom_site_type_symbol
 _atom_site_label
 _atom_site_symmetry_multiplicity
 _atom_site_fract_x
 _atom_site_fract_y
 _atom_site_fract_z
 _atom_site_occupancy
  Mn  Mn0  1  0.49966928  0.50066155  0.50055711  1
  Al  Al1  1  0.99997042  0.00074168  1.00001784  1
  Al  Al2  1  0.00009122  0.24983504  0.24965277  1
  Al  Al3  1  0.24975893  -0.00069113  0.24907251  1
  Al  Al4  1  0.25036506  0.25019787  1.00067330  1
  Al  Al5  1  0.00007579  0.00006156  0.49937780  1
  Al  Al6  1  0.00070822  0.24993351  0.75044825  1
  Al  Al7  1  0.24939748  0.00018772  0.75068647  1
  Al  Al8  1  0.24895270  0.24924027  0.49921354  1
  Al  Al9  1  0.99969800  0.49956857  1.00016988  1
  Al  Al10  1  -0.00072895  0.75027650  0.24852463  1
  Al  Al11  1  0.24903836  0.50034128  0.24964828  1
  Al  Al12  1  0.25016912  0.74997982  0.99981875  1
  Al  Al13  1  0.99964114  0.50121594  0.49961966  1
  Al  Al14  1  -0.00003597  0.75076027  0.75085153  1
  Al  Al15  1  0.24867088  0.49980783  0.75072683  1
  Al  Al16  1  0.24875716  0.75081520  0.49970241  1
  Al  Al17  1  0.49995427  0.00065407  0.99975482  1
  Al  Al18  1  0.50057591  0.24962804  0.25012929  1
  Al  Al19  1  0.75021595  0.00030821  0.24940816  1
  Al  Al20  1  0.74991767  0.24987049  0.99979025  1
  Al  Al21  1  0.49893971  -0.00000876  0.49897694  1
  Al  Al22  1  0.49975471  0.24908784  0.74988938  1
  Al  Al23  1  0.75054312  0.00051020  0.75008683  1
  Al  Al24  1  0.75173939  0.24926828  0.50018426  1
  Al  Al25  1  0.49991547  0.50006563  -0.00037425  1
  Al  Al26  1  0.50111105  0.75049709  0.24898153  1
  Al  Al27  1  0.74989992  0.49995172  0.24916454  1
  Al  Al28  1  0.75016780  0.75040146  0.99907077  1
  Al  Al29  1  0.50004392  0.75133940  0.75013053  1
  Al  Al30  1  0.75070561  0.49964485  0.75005256  1
  Al  Al31  1  0.75098744  0.75183758  0.50046163  1
  N  N32  1  0.24984570  0.24923475  0.25000736  1
  N  N33  1  0.24973189  0.00010643  0.00024468  1
  N  N34  1  0.99992033  0.24953959  1.00101731  1
  N  N35  1  1.00010412  0.99924692  0.24948346  1
  N  N36  1  0.24961488  0.25021843  0.75038271  1
  N  N37  1  0.24819043  0.99906605  0.49981758  1
  N  N38  1  0.00075099  0.24824999  0.49952286  1
  N  N39  1  0.00081115  1.00038877  0.75126216  1
  N  N40  1  0.25015600  0.75013048  0.24946761  1
  N  N41  1  0.24869830  0.49940320  0.00115785  1
  N  N42  1  1.00051411  0.75020075  0.99998485  1
  N  N43  1  0.99879483  0.50052201  0.24902121  1
  N  N44  1  0.24884327  0.74953886  0.75033416  1
  N  N45  1  0.24162898  0.50058303  0.49905262  1
  N  N46  1  0.99918760  0.75139897  0.50036986  1
  N  N47  1  0.99989535  0.49893630  0.75199193  1
  N  N48  1  0.75043635  0.24957150  0.24984840  1
  N  N49  1  0.75041350  -0.00022995  0.00030360  1
  N  N50  1  0.50007377  0.24824588  0.00063041  1
  N  N51  1  0.49994035  0.99950449  0.24904548  1
  N  N52  1  0.75049963  0.24850976  0.75094097  1
  N  N53  1  0.75181972  1.00053411  0.49983956  1
  N  N54  1  0.49979432  0.24199875  0.50000841  1
  N  N55  1  0.49911289  -0.00001134  0.75144087  1
  N  N56  1  0.75032453  0.75031611  0.24926196  1
  N  N57  1  0.75133354  0.49996513  0.99926558  1
  N  N58  1  0.49967435  0.75144060  -0.00066955  1
  N  N59  1  0.50070887  0.50014693  0.24217875  1
  N  N60  1  0.75140485  0.75099385  0.75097750  1
  N  N61  1  0.75782926  0.49971967  0.50091468  1
  N  N62  1  0.50078495  0.75820831  0.50058529  1
  N  N63  1  0.49967350  0.49954254  0.75810723  1
