# generated using pymatgen
data_Ti31NbN32
_symmetry_space_group_name_H-M   'P 1'
_cell_length_a   18.31668075
_cell_length_b   9.31527034
_cell_length_c   4.25353208
_cell_angle_alpha   89.99933419
_cell_angle_beta   89.99940563
_cell_angle_gamma   98.15794201
_symmetry_Int_Tables_number   1
_chemical_formula_structural   Ti31NbN32
_chemical_formula_sum   'Ti31 Nb1 N32'
_cell_volume   718.41400766
_cell_formula_units_Z   1
loop_
 _symmetry_equiv_pos_site_id
 _symmetry_equiv_pos_as_xyz
  1  'x, y, z'
loop_
 _atom_site_type_symbol
 _atom_site_label
 _atom_site_symmetry_multiplicity
 _atom_site_fract_x
 _atom_site_fract_y
 _atom_site_fract_z
 _atom_site_occupancy
  Ti  Ti0  1  0.16635676  0.33643479  0.06213390  1
  Ti  Ti1  1  0.29022345  0.08423359  0.06228107  1
  Ti  Ti2  1  0.47818367  0.20546948  0.06252936  1
  Ti  Ti3  1  0.10327329  0.96081283  0.06276829  1
  Ti  Ti4  1  0.41557111  0.83445180  0.06215984  1
  Ti  Ti5  1  0.45792481  0.41308818  0.56243868  1
  Ti  Ti6  1  0.39532513  0.03951695  0.56226300  1
  Ti  Ti7  1  0.02116699  0.79209734  0.56223669  1
  Ti  Ti8  1  0.22883555  0.71009475  0.06249160  1
  Ti  Ti9  1  0.35260767  0.45895725  0.06277654  1
  Ti  Ti10  1  0.04149702  0.58595242  0.06252685  1
  Ti  Ti11  1  0.33429484  0.66475245  0.56259397  1
  Ti  Ti12  1  0.14646624  0.54223869  0.56247657  1
  Ti  Ti13  1  0.27047245  0.29070977  0.56229420  1
  Ti  Ti14  1  0.08358812  0.16712625  0.56233849  1
  Ti  Ti15  1  0.20838838  0.91581462  0.56230896  1
  Ti  Ti16  1  0.66743858  0.33050830  0.06233059  1
  Ti  Ti17  1  0.79108565  0.08290014  0.06215110  1
  Ti  Ti18  1  0.97874756  0.21020172  0.06264366  1
  Ti  Ti19  1  0.60446257  0.96171186  0.06240863  1
  Ti  Ti20  1  0.91622783  0.83524553  0.06244574  1
  Ti  Ti21  1  0.95905787  0.41736957  0.56259269  1
  Ti  Ti22  1  0.89587234  0.04170287  0.56259081  1
  Ti  Ti23  1  0.52152438  0.79125979  0.56189061  1
  Ti  Ti24  1  0.72970001  0.70942954  0.06257893  1
  Ti  Ti25  1  0.85460909  0.45904836  0.06224449  1
  Ti  Ti26  1  0.83417630  0.66636731  0.56224087  1
  Ti  Ti27  1  0.64723510  0.53880394  0.56186854  1
  Ti  Ti28  1  0.77255268  0.28982948  0.56226457  1
  Ti  Ti29  1  0.58394708  0.16719922  0.56298543  1
  Ti  Ti30  1  0.70792016  0.91383601  0.56275244  1
  Nb  Nb31  1  0.54125842  0.58273209  0.06259089  1
  N  N32  1  0.22946416  0.70912468  0.56284607  1
  N  N33  1  0.35334265  0.45689080  0.56274409  1
  N  N34  1  0.04171235  0.58539757  0.56258020  1
  N  N35  1  0.16605296  0.33519847  0.56243643  1
  N  N36  1  0.29084243  0.08396704  0.56191525  1
  N  N37  1  0.47871496  0.20369505  0.56319831  1
  N  N38  1  0.10404394  0.96026075  0.56224122  1
  N  N39  1  0.41547665  0.83330972  0.56205075  1
  N  N40  1  0.33268567  0.66685311  0.06295091  1
  N  N41  1  0.45542314  0.40809651  0.06281622  1
  N  N42  1  0.14588430  0.54309162  0.06229520  1
  N  N43  1  0.27033663  0.29140147  0.06218849  1
  N  N44  1  0.39402909  0.04106184  0.06223762  1
  N  N45  1  0.08366262  0.16889002  0.06223742  1
  N  N46  1  0.20766053  0.91686125  0.06240564  1
  N  N47  1  0.02086545  0.79314578  0.06247757  1
  N  N48  1  0.72980820  0.70802970  0.56255540  1
  N  N49  1  0.85431004  0.45951573  0.56215077  1
  N  N50  1  0.54177693  0.58055874  0.56170457  1
  N  N51  1  0.66858543  0.32981123  0.56246698  1
  N  N52  1  0.79098811  0.08112411  0.56260621  1
  N  N53  1  0.97885124  0.21027010  0.56259788  1
  N  N54  1  0.60462079  0.96139241  0.56233309  1
  N  N55  1  0.91650800  0.83467701  0.56233549  1
  N  N56  1  0.83420300  0.66599465  0.06245287  1
  N  N57  1  0.95887519  0.41808156  0.06248293  1
  N  N58  1  0.65011533  0.53736708  0.06218778  1
  N  N59  1  0.77262944  0.29092873  0.06218443  1
  N  N60  1  0.89598830  0.04234329  0.06266203  1
  N  N61  1  0.58317848  0.16705050  0.06313359  1
  N  N62  1  0.70883134  0.91650038  0.06262298  1
  N  N63  1  0.52039952  0.79873467  0.06200524  1
