# generated using pymatgen
data_Al31VN32
_symmetry_space_group_name_H-M   'P 1'
_cell_length_a   8.13922487
_cell_length_b   8.13867132
_cell_length_c   8.14036897
_cell_angle_alpha   89.99979277
_cell_angle_beta   89.99790604
_cell_angle_gamma   89.99651945
_symmetry_Int_Tables_number   1
_chemical_formula_structural   Al31VN32
_chemical_formula_sum   'Al31 V1 N32'
_cell_volume   539.23819458
_cell_formula_units_Z   1
loop_
 _symmetry_equiv_pos_site_id
 _symmetry_equiv_pos_as_xyz
  1  'x, y, z'
loop_
 _atom_site_type_symbol
 _atom_site_label
 _atom_site_symmetry_multiplicity
 _atom_site_fract_x
 _atom_site_fract_y
 _atom_site_fract_z
 _atom_site_occupancy
  Al  Al0  1  -0.00043966  -0.00068183  -0.00075563  1
  Al  Al1  1  0.00017906  0.25008102  0.24893552  1
  Al  Al2  1  0.24965158  1.00050181  0.24835280  1
  Al  Al3  1  0.25136705  0.25182148  -0.00000203  1
  Al  Al4  1  1.00036734  -0.00012107  0.50045801  1
  Al  Al5  1  0.00031758  0.24999097  0.75088473  1
  Al  Al6  1  0.25097104  1.00018190  0.75112752  1
  Al  Al7  1  0.24870318  0.24875561  0.50006995  1
  Al  Al8  1  0.99912119  0.50027553  0.99901067  1
  Al  Al9  1  1.00002126  0.75021818  0.24939304  1
  Al  Al10  1  0.24885031  0.49986329  0.25057046  1
  Al  Al11  1  0.25135791  0.74873797  1.00033634  1
  Al  Al12  1  0.99946874  0.50050986  0.50109177  1
  Al  Al13  1  0.00039897  0.75042013  0.75070585  1
  Al  Al14  1  0.25047965  0.50025394  0.74919469  1
  Al  Al15  1  0.24911858  0.75103578  0.49947015  1
  Al  Al16  1  0.50028208  0.00007704  1.00038237  1
  Al  Al17  1  0.50015306  0.25022668  0.25035600  1
  Al  Al18  1  0.75015768  1.00011199  0.24908715  1
  Al  Al19  1  0.74957599  0.25098379  0.99948946  1
  Al  Al20  1  0.49936594  -0.00015910  0.49903465  1
  Al  Al21  1  0.49997113  0.24996058  0.74892873  1
  Al  Al22  1  0.74898924  0.99994211  0.75009388  1
  Al  Al23  1  0.75131091  0.24824193  0.50000141  1
  Al  Al24  1  0.50097826  0.49992444  -0.00080220  1
  Al  Al25  1  0.50019264  0.74999009  0.25061232  1
  Al  Al26  1  0.75089105  0.49949293  0.25167526  1
  Al  Al27  1  0.74888551  0.74878572  1.00013802  1
  Al  Al28  1  0.49975765  0.75010563  0.74933047  1
  Al  Al29  1  0.74923174  0.50013832  0.74854285  1
  Al  Al30  1  0.75063172  0.75130431  0.50004495  1
  V  V31  1  0.49950999  0.49983576  0.49969364  1
  N  N32  1  0.25010402  0.25125219  0.24966981  1
  N  N33  1  0.25084591  1.00011709  -0.00040854  1
  N  N34  1  1.00011048  0.25023177  0.99957160  1
  N  N35  1  0.00013162  0.99953670  0.24827424  1
  N  N36  1  0.25164563  0.25104851  0.75034865  1
  N  N37  1  0.24885905  1.00070487  0.49938343  1
  N  N38  1  1.00020928  0.24896625  0.50046236  1
  N  N39  1  0.00036602  1.00003936  0.75069072  1
  N  N40  1  0.25016039  0.74903852  0.25108823  1
  N  N41  1  0.24999987  0.50078470  1.00046013  1
  N  N42  1  0.00010089  0.75053083  0.99978281  1
  N  N43  1  -0.00032789  0.50010999  0.25007351  1
  N  N44  1  0.25106112  0.74948215  0.74884542  1
  N  N45  1  0.24410873  0.49966351  0.50029239  1
  N  N46  1  -0.00074259  0.75108319  0.50053161  1
  N  N47  1  0.00016603  0.49999532  0.75052662  1
  N  N48  1  0.75018805  0.25038098  0.25154738  1
  N  N49  1  0.74973339  0.00056102  0.99936888  1
  N  N50  1  0.50115942  0.25073165  1.00067865  1
  N  N51  1  0.49983394  0.00047891  0.24938850  1
  N  N52  1  0.74916013  0.25025347  0.74849699  1
  N  N53  1  0.74981475  -0.00086742  0.49973461  1
  N  N54  1  0.49962273  0.24421662  0.50040658  1
  N  N55  1  0.49989620  0.99928283  0.75072660  1
  N  N56  1  0.74905699  0.74895886  0.25075514  1
  N  N57  1  0.75055499  0.49985757  0.00042329  1
  N  N58  1  0.50023876  0.74944394  0.00141449  1
  N  N59  1  0.50040843  0.49938462  0.24660519  1
  N  N60  1  0.74868180  0.74899732  0.74952972  1
  N  N61  1  0.75544184  0.49969196  0.50074869  1
  N  N62  1  0.49884291  0.75538371  0.50005488  1
  N  N63  1  0.50036022  0.50018585  0.75502316  1
