# generated using pymatgen
data_Al31FeN32
_symmetry_space_group_name_H-M   'P 1'
_cell_length_a   8.14289213
_cell_length_b   8.14284007
_cell_length_c   8.14113828
_cell_angle_alpha   90.01269784
_cell_angle_beta   90.01187453
_cell_angle_gamma   90.01047262
_symmetry_Int_Tables_number   1
_chemical_formula_structural   Al31FeN32
_chemical_formula_sum   'Al31 Fe1 N32'
_cell_volume   539.80846523
_cell_formula_units_Z   1
loop_
 _symmetry_equiv_pos_site_id
 _symmetry_equiv_pos_as_xyz
  1  'x, y, z'
loop_
 _atom_site_type_symbol
 _atom_site_label
 _atom_site_symmetry_multiplicity
 _atom_site_fract_x
 _atom_site_fract_y
 _atom_site_fract_z
 _atom_site_occupancy
  Al  Al0  1  0.99991092  0.99918491  0.00005313  1
  Al  Al1  1  0.99987917  0.25088229  0.24915919  1
  Al  Al2  1  0.25059655  1.00040462  0.24974628  1
  Al  Al3  1  0.25081924  0.25087887  0.99983273  1
  Al  Al4  1  0.00028703  1.00048693  0.49935968  1
  Al  Al5  1  0.99983384  0.24957915  0.75050054  1
  Al  Al6  1  0.25106707  0.99988623  0.74973219  1
  Al  Al7  1  0.25123776  0.25162297  0.50022940  1
  Al  Al8  1  0.99909978  0.50063731  0.99919419  1
  Al  Al9  1  1.00026099  0.74912243  0.25088291  1
  Al  Al10  1  0.25104926  0.49978392  0.25107907  1
  Al  Al11  1  0.25063397  0.74866745  0.99989904  1
  Al  Al12  1  0.99976344  0.49892109  0.50019433  1
  Al  Al13  1  1.00002826  0.75010919  0.74877947  1
  Al  Al14  1  0.25109542  0.49984893  0.74832039  1
  Al  Al15  1  0.25121842  0.74840888  0.49994566  1
  Al  Al16  1  0.49974421  0.99902769  0.99988254  1
  Al  Al17  1  0.49965885  0.25218548  0.25108869  1
  Al  Al18  1  0.74933302  0.00019957  0.25088872  1
  Al  Al19  1  0.74910736  0.25001074  0.00044715  1
  Al  Al20  1  0.49929073  0.00032323  0.49912893  1
  Al  Al21  1  0.50032912  0.25135259  0.74891571  1
  Al  Al22  1  0.74916034  -0.00011417  0.74909805  1
  Al  Al23  1  0.74860441  0.25157348  0.49986831  1
  Al  Al24  1  0.50029066  0.50023574  -0.00084037  1
  Al  Al25  1  0.49934293  0.74792370  0.25249746  1
  Al  Al26  1  0.74815700  0.50032326  0.25200136  1
  Al  Al27  1  0.74915086  0.74965640  1.00052227  1
  Al  Al28  1  0.50011093  0.74829110  0.74739235  1
  Al  Al29  1  0.74843237  0.50016102  0.74826644  1
  Al  Al30  1  0.74836470  0.74862591  0.49980314  1
  Fe  Fe31  1  0.49874853  0.49707916  0.49917620  1
  N  N32  1  0.25048788  0.25139780  0.25083608  1
  N  N33  1  0.24985535  0.00026209  0.00021631  1
  N  N34  1  1.00041067  0.24920691  0.99973140  1
  N  N35  1  0.00098945  0.00123128  0.24903355  1
  N  N36  1  0.25077947  0.25043115  0.74963939  1
  N  N37  1  0.24837104  0.00038595  0.50034484  1
  N  N38  1  0.00007530  0.24833737  0.50087133  1
  N  N39  1  0.00062728  -0.00064136  0.75152761  1
  N  N40  1  0.25000552  0.74920215  0.25063322  1
  N  N41  1  0.24841068  0.49964662  0.99984461  1
  N  N42  1  1.00070807  0.75068783  0.00072026  1
  N  N43  1  -0.00066944  0.49957127  0.24848614  1
  N  N44  1  0.25126633  0.74947270  0.74961615  1
  N  N45  1  0.24034786  0.49987835  0.50018876  1
  N  N46  1  0.00011733  0.75204061  0.49956372  1
  N  N47  1  0.99990460  0.50075549  0.75162084  1
  N  N48  1  0.74926092  0.25164217  0.25016199  1
  N  N49  1  0.75097329  0.99925714  0.00142257  1
  N  N50  1  0.50054435  0.24857005  0.00028197  1
  N  N51  1  0.49936319  0.00054239  0.24848741  1
  N  N52  1  0.74978408  0.24986143  0.75072439  1
  N  N53  1  0.75178175  0.00115782  0.49952923  1
  N  N54  1  0.50009714  0.24108706  0.50030680  1
  N  N55  1  0.50062775  0.00001252  0.75159830  1
  N  N56  1  0.74969577  0.74991068  0.25144068  1
  N  N57  1  0.75135098  0.50119019  0.99992653  1
  N  N58  1  0.49967033  0.75125681  1.00041490  1
  N  N59  1  0.49975938  0.50014401  0.24119780  1
  N  N60  1  0.74963887  0.75051948  0.74915528  1
  N  N61  1  0.75881782  0.49981644  0.50053435  1
  N  N62  1  0.49993629  0.75929880  0.49967650  1
  N  N63  1  0.50037362  0.49991381  0.75838644  1
