# generated using pymatgen
data_Al31CrN32
_symmetry_space_group_name_H-M   'P 1'
_cell_length_a   8.12988328
_cell_length_b   8.12760265
_cell_length_c   8.12848908
_cell_angle_alpha   89.99905618
_cell_angle_beta   89.99804259
_cell_angle_gamma   90.00643865
_symmetry_Int_Tables_number   1
_chemical_formula_structural   Al31CrN32
_chemical_formula_sum   'Al31 Cr1 N32'
_cell_volume   537.10178765
_cell_formula_units_Z   1
loop_
 _symmetry_equiv_pos_site_id
 _symmetry_equiv_pos_as_xyz
  1  'x, y, z'
loop_
 _atom_site_type_symbol
 _atom_site_label
 _atom_site_symmetry_multiplicity
 _atom_site_fract_x
 _atom_site_fract_y
 _atom_site_fract_z
 _atom_site_occupancy
  Al  Al0  1  0.00062012  0.00152854  0.00034490  1
  Al  Al1  1  0.00098393  0.25047771  0.24964053  1
  Al  Al2  1  0.25090706  1.00056545  0.25070735  1
  Al  Al3  1  0.25118583  0.25053070  0.99904871  1
  Al  Al4  1  -0.00005866  0.00105052  0.49964209  1
  Al  Al5  1  0.99827653  0.25038501  0.74947224  1
  Al  Al6  1  0.24893195  1.00052871  0.74978420  1
  Al  Al7  1  0.25040643  0.25004238  0.50035002  1
  Al  Al8  1  0.00080084  0.49964465  0.99986066  1
  Al  Al9  1  0.00115682  0.75094709  0.25018047  1
  Al  Al10  1  0.25084314  0.50071464  0.24899765  1
  Al  Al11  1  0.24995431  0.75073504  0.99993292  1
  Al  Al12  1  0.00056050  0.50059162  0.49791278  1
  Al  Al13  1  0.99954997  0.75086115  0.75060903  1
  Al  Al14  1  0.24841081  0.50036798  0.74966280  1
  Al  Al15  1  0.24991502  0.75092604  0.50097745  1
  Al  Al16  1  0.50003052  -0.00034783  0.00010140  1
  Al  Al17  1  0.49985244  0.25031720  0.24919060  1
  Al  Al18  1  0.75011997  1.00015134  0.25047845  1
  Al  Al19  1  0.74938041  0.25014128  0.00085596  1
  Al  Al20  1  0.50163111  0.99940091  0.49926581  1
  Al  Al21  1  0.49984575  0.24938422  0.74968450  1
  Al  Al22  1  0.74912863  -0.00030917  0.75134325  1
  Al  Al23  1  0.75011719  0.25016991  0.49966940  1
  Al  Al24  1  0.50108082  0.50115269  -0.00135069  1
  Al  Al25  1  0.50071846  0.75019235  0.24954705  1
  Al  Al26  1  0.75086985  0.50040012  0.24921930  1
  Al  Al27  1  0.75143802  0.75039051  0.00111377  1
  Al  Al28  1  0.49961786  0.75078075  0.75071679  1
  Al  Al29  1  0.75067772  0.50023834  0.75074537  1
  Al  Al30  1  0.75140339  0.75023840  0.50083474  1
  Cr  Cr31  1  0.50072574  0.50040912  0.49989251  1
  N  N32  1  0.25077337  0.24968285  0.25039462  1
  N  N33  1  0.24916452  1.00017058  1.00000211  1
  N  N34  1  0.99920681  0.24966457  1.00020652  1
  N  N35  1  1.00001509  1.00075262  0.24999692  1
  N  N36  1  0.24950854  0.24944816  0.74984430  1
  N  N37  1  0.24927031  1.00003188  0.50039003  1
  N  N38  1  -0.00083802  0.24894784  0.50000542  1
  N  N39  1  -0.00115394  0.00028104  0.75004127  1
  N  N40  1  0.24988209  0.74955829  0.25030973  1
  N  N41  1  0.24983063  0.49920002  -0.00078034  1
  N  N42  1  1.00047254  0.74998445  0.00065914  1
  N  N43  1  1.00061481  0.49889353  0.24845717  1
  N  N44  1  0.24836461  0.74995261  0.75042543  1
  N  N45  1  0.24407291  0.49950790  0.49998977  1
  N  N46  1  1.00059371  0.75041232  0.49986781  1
  N  N47  1  0.99900117  0.49927794  0.75110564  1
  N  N48  1  0.74860213  0.24967406  0.25029608  1
  N  N49  1  0.74999731  0.99900410  1.00135868  1
  N  N50  1  0.49979258  0.24841516  -0.00043788  1
  N  N51  1  0.49949977  0.99889730  0.24912754  1
  N  N52  1  0.74845415  0.24873729  0.75037145  1
  N  N53  1  0.75054883  0.99883623  0.49970476  1
  N  N54  1  0.50025884  0.24363901  0.49994270  1
  N  N55  1  0.49955228  0.99885159  0.75115310  1
  N  N56  1  0.75086573  0.74907058  0.25028551  1
  N  N57  1  0.75018540  0.49968976  0.00005285  1
  N  N58  1  0.49924948  0.75035977  -0.00003725  1
  N  N59  1  0.50030164  0.49990681  0.24366444  1
  N  N60  1  0.75025692  0.74990007  0.75102510  1
  N  N61  1  0.75620102  0.49983099  0.50014862  1
  N  N62  1  0.50010821  0.75554172  0.50021826  1
  N  N63  1  0.49972019  0.49999168  0.75498341  1
