# generated using pymatgen
data_HfAl31N32
_symmetry_space_group_name_H-M   'P 1'
_cell_length_a   16.63850480
_cell_length_b   8.31501226
_cell_length_c   5.02810233
_cell_angle_alpha   89.99229713
_cell_angle_beta   89.99696217
_cell_angle_gamma   98.20279350
_symmetry_Int_Tables_number   1
_chemical_formula_structural   HfAl31N32
_chemical_formula_sum   'Hf1 Al31 N32'
_cell_volume   688.51794084
_cell_formula_units_Z   1
loop_
 _symmetry_equiv_pos_site_id
 _symmetry_equiv_pos_as_xyz
  1  'x, y, z'
loop_
 _atom_site_type_symbol
 _atom_site_label
 _atom_site_symmetry_multiplicity
 _atom_site_fract_x
 _atom_site_fract_y
 _atom_site_fract_z
 _atom_site_occupancy
  Hf  Hf0  1  0.54189566  0.58353199  0.00685645  1
  Al  Al1  1  0.16490948  0.33252774  0.00154479  1
  Al  Al2  1  0.28883315  0.08285111  0.00359898  1
  Al  Al3  1  0.47745672  0.19949368  0.00420695  1
  Al  Al4  1  0.10327175  0.95773359  0.00108306  1
  Al  Al5  1  0.41154382  0.83650347  0.00268539  1
  Al  Al6  1  0.45357142  0.40949252  0.50246426  1
  Al  Al7  1  0.39330067  0.04162658  0.50477510  1
  Al  Al8  1  0.02089377  0.79094080  0.50095461  1
  Al  Al9  1  0.22679859  0.70805202  0.00259086  1
  Al  Al10  1  0.34790756  0.45640159  0.00157659  1
  Al  Al11  1  0.04162348  0.58312673  0.00108498  1
  Al  Al12  1  0.33098889  0.66703016  0.50398094  1
  Al  Al13  1  0.14491583  0.54064368  0.50164074  1
  Al  Al14  1  0.26863890  0.29015054  0.50267052  1
  Al  Al15  1  0.08329067  0.16602966  0.50096067  1
  Al  Al16  1  0.20671152  0.91603503  0.50220617  1
  Al  Al17  1  0.67076561  0.32780081  0.00338170  1
  Al  Al18  1  0.79448387  0.08365524  0.00380337  1
  Al  Al19  1  0.98002109  0.20859817  0.00124812  1
  Al  Al20  1  0.60733555  0.96595767  0.00425098  1
  Al  Al21  1  0.91852310  0.83449066  0.00157230  1
  Al  Al22  1  0.95920999  0.41637718  0.50138715  1
  Al  Al23  1  0.89739518  0.04224587  0.50213922  1
  Al  Al24  1  0.51952854  0.80251482  0.50297691  1
  Al  Al25  1  0.73522934  0.71293902  0.00187634  1
  Al  Al26  1  0.85615457  0.45853523  0.00284474  1
  Al  Al27  1  0.83593076  0.66740673  0.50241213  1
  Al  Al28  1  0.65172994  0.54046800  0.50232497  1
  Al  Al29  1  0.77338432  0.29139256  0.50377949  1
  Al  Al30  1  0.58391772  0.16828490  0.50662531  1
  Al  Al31  1  0.71043255  0.91847250  0.50517024  1
  N  N32  1  0.22812480  0.70810003  0.62325400  1
  N  N33  1  0.35265601  0.45856298  0.62330158  1
  N  N34  1  0.04157249  0.58308058  0.62185507  1
  N  N35  1  0.16615590  0.33304608  0.62251857  1
  N  N36  1  0.29046562  0.08326691  0.62420772  1
  N  N37  1  0.47868396  0.20693334  0.62548737  1
  N  N38  1  0.10348561  0.95784700  0.62181308  1
  N  N39  1  0.41542139  0.83396782  0.62444151  1
  N  N40  1  0.33190342  0.66603311  0.12433674  1
  N  N41  1  0.45132211  0.40432085  0.12340407  1
  N  N42  1  0.14536666  0.54087849  0.12244767  1
  N  N43  1  0.26844375  0.29040230  0.12405251  1
  N  N44  1  0.39306724  0.04123253  0.12627299  1
  N  N45  1  0.08323877  0.16590350  0.12189845  1
  N  N46  1  0.20723169  0.91572163  0.12284211  1
  N  N47  1  0.02110983  0.79095963  0.12197891  1
  N  N48  1  0.73075979  0.70954878  0.62360401  1
  N  N49  1  0.85489513  0.45889941  0.62342553  1
  N  N50  1  0.54181701  0.58389169  0.57856141  1
  N  N51  1  0.66785575  0.33257317  0.62482301  1
  N  N52  1  0.79279066  0.08348309  0.62449604  1
  N  N53  1  0.97975769  0.20862854  0.62199730  1
  N  N54  1  0.60507645  0.95994630  0.62564280  1
  N  N55  1  0.91724552  0.83408726  0.62263399  1
  N  N56  1  0.83599599  0.66751173  0.12372183  1
  N  N57  1  0.95904632  0.41619622  0.12224495  1
  N  N58  1  0.65461198  0.53905679  0.12329953  1
  N  N59  1  0.77313069  0.28991127  0.12488267  1
  N  N60  1  0.89706740  0.04167015  0.12305184  1
  N  N61  1  0.58385971  0.17008762  0.12679148  1
  N  N62  1  0.70945814  0.91708241  0.12509839  1
  N  N63  1  0.51894172  0.80868765  0.12351265  1
