# generated using pymatgen
data_Al31WN32
_symmetry_space_group_name_H-M   'P 1'
_cell_length_a   16.61222860
_cell_length_b   8.30216022
_cell_length_c   5.03333934
_cell_angle_alpha   90.00375203
_cell_angle_beta   89.99089041
_cell_angle_gamma   98.21192336
_symmetry_Int_Tables_number   1
_chemical_formula_structural   Al31WN32
_chemical_formula_sum   'Al31 W1 N32'
_cell_volume   687.06717524
_cell_formula_units_Z   1
loop_
 _symmetry_equiv_pos_site_id
 _symmetry_equiv_pos_as_xyz
  1  'x, y, z'
loop_
 _atom_site_type_symbol
 _atom_site_label
 _atom_site_symmetry_multiplicity
 _atom_site_fract_x
 _atom_site_fract_y
 _atom_site_fract_z
 _atom_site_occupancy
  Al  Al0  1  0.16475432  0.33349917  0.00061364  1
  Al  Al1  1  0.28933540  0.08284862  0.00255416  1
  Al  Al2  1  0.47857649  0.19990253  1.00208319  1
  Al  Al3  1  0.10389042  0.95867621  0.00047496  1
  Al  Al4  1  0.41176735  0.83403940  1.00117177  1
  Al  Al5  1  0.45435329  0.40953548  0.50987753  1
  Al  Al6  1  0.39310481  0.04069328  0.50381864  1
  Al  Al7  1  0.02132099  0.79279890  0.50026357  1
  Al  Al8  1  0.22721521  0.70842774  0.00150959  1
  Al  Al9  1  0.34819245  0.45770743  1.00006841  1
  Al  Al10  1  0.04173029  0.58399417  0.00031452  1
  Al  Al11  1  0.33156353  0.66588803  0.50312906  1
  Al  Al12  1  0.14496048  0.54259936  0.50075990  1
  Al  Al13  1  0.26797829  0.28978482  0.50196991  1
  Al  Al14  1  0.08280784  0.16742075  0.50029013  1
  Al  Al15  1  0.20711498  0.91622533  0.50177886  1
  Al  Al16  1  0.66965366  0.32723668  0.00210910  1
  Al  Al17  1  0.79388233  0.08353129  0.00331774  1
  Al  Al18  1  0.97958370  0.20898128  0.00074208  1
  Al  Al19  1  0.60724825  0.96347408  1.00263216  1
  Al  Al20  1  0.91854093  0.83478065  0.00107294  1
  Al  Al21  1  0.95897475  0.41752801  0.50077589  1
  Al  Al22  1  0.89701567  0.04243846  0.50192063  1
  Al  Al23  1  0.51987335  0.79864088  0.50894160  1
  Al  Al24  1  0.73448423  0.71487844  1.00111493  1
  Al  Al25  1  0.85582917  0.45846486  0.00196394  1
  Al  Al26  1  0.83632415  0.66755492  0.50211977  1
  Al  Al27  1  0.65100537  0.54058641  0.50960193  1
  Al  Al28  1  0.77366648  0.29071239  0.50352377  1
  Al  Al29  1  0.58384440  0.16841367  0.50496785  1
  Al  Al30  1  0.70958573  0.91752577  0.50478010  1
  W  W31  1  0.54176395  0.57952572  0.00643429  1
  N  N32  1  0.22902258  0.70852561  0.62271924  1
  N  N33  1  0.35337859  0.45732690  0.62236506  1
  N  N34  1  0.04147913  0.58463649  0.62132628  1
  N  N35  1  0.16590590  0.33463111  0.62173862  1
  N  N36  1  0.29082475  0.08360689  0.62376884  1
  N  N37  1  0.47883788  0.20619588  0.62439361  1
  N  N38  1  0.10412330  0.95955823  0.62142408  1
  N  N39  1  0.41600508  0.83239281  0.62349030  1
  N  N40  1  0.33265372  0.66566804  0.12404026  1
  N  N41  1  0.45285966  0.40649943  0.12666421  1
  N  N42  1  0.14568622  0.54195731  0.12178685  1
  N  N43  1  0.26929259  0.29089202  0.12300764  1
  N  N44  1  0.39438378  0.04137595  0.12465732  1
  N  N45  1  0.08313759  0.16660892  0.12132167  1
  N  N46  1  0.20804086  0.91605574  0.12271714  1
  N  N47  1  0.02141936  0.79199207  0.12141108  1
  N  N48  1  0.73024717  0.70874187  0.62332640  1
  N  N49  1  0.85440961  0.45885509  0.62304750  1
  N  N50  1  0.54180937  0.58195314  0.58884970  1
  N  N51  1  0.66761697  0.33280410  0.62442230  1
  N  N52  1  0.79195447  0.08241622  0.62444123  1
  N  N53  1  0.97902620  0.20946511  0.62177590  1
  N  N54  1  0.60441066  0.95895830  0.62460566  1
  N  N55  1  0.91731009  0.83466834  0.62230447  1
  N  N56  1  0.83484125  0.66725947  0.12290321  1
  N  N57  1  0.95877211  0.41695202  0.12181510  1
  N  N58  1  0.65219281  0.54009477  0.12629720  1
  N  N59  1  0.77202859  0.29067958  0.12445173  1
  N  N60  1  0.89640119  0.04165635  0.12291566  1
  N  N61  1  0.58349565  0.16876354  0.12567639  1
  N  N62  1  0.70854419  0.91702015  0.12524928  1
  N  N63  1  0.51945037  0.80478784  0.12740998  1
