# generated using pymatgen
data_Al31OsN32
_symmetry_space_group_name_H-M   'P 1'
_cell_length_a   16.56856280
_cell_length_b   8.27898618
_cell_length_c   5.03420288
_cell_angle_alpha   89.98854287
_cell_angle_beta   89.99244288
_cell_angle_gamma   98.18845159
_symmetry_Int_Tables_number   1
_chemical_formula_structural   Al31OsN32
_chemical_formula_sum   'Al31 Os1 N32'
_cell_volume   683.50598376
_cell_formula_units_Z   1
loop_
 _symmetry_equiv_pos_site_id
 _symmetry_equiv_pos_as_xyz
  1  'x, y, z'
loop_
 _atom_site_type_symbol
 _atom_site_label
 _atom_site_symmetry_multiplicity
 _atom_site_fract_x
 _atom_site_fract_y
 _atom_site_fract_z
 _atom_site_occupancy
  Al  Al0  1  0.16526130  0.33370107  0.00028142  1
  Al  Al1  1  0.28966747  0.08345704  0.00208476  1
  Al  Al2  1  0.47877331  0.20271402  1.00212873  1
  Al  Al3  1  0.10378782  0.95863320  0.00043028  1
  Al  Al4  1  0.41291155  0.83359619  1.00093685  1
  Al  Al5  1  0.45537876  0.41054802  0.50696763  1
  Al  Al6  1  0.39385439  0.04121283  0.50329096  1
  Al  Al7  1  0.02116321  0.79181702  0.50006877  1
  Al  Al8  1  0.22757835  0.70812913  0.00120593  1
  Al  Al9  1  0.35040188  0.45743131  0.99983911  1
  Al  Al10  1  0.04129271  0.58361658  0.00020791  1
  Al  Al11  1  0.33176020  0.66581894  0.50195046  1
  Al  Al12  1  0.14473292  0.54172784  0.50060979  1
  Al  Al13  1  0.26892910  0.29115392  0.50148987  1
  Al  Al14  1  0.08306074  0.16687433  0.50004037  1
  Al  Al15  1  0.20735840  0.91676814  0.50140135  1
  Al  Al16  1  0.66906710  0.33027215  1.00148703  1
  Al  Al17  1  0.79352824  0.08292452  0.00243462  1
  Al  Al18  1  0.97962091  0.20916147  0.00046066  1
  Al  Al19  1  0.60639916  0.96100367  1.00244119  1
  Al  Al20  1  0.91826783  0.83484489  0.00048169  1
  Al  Al21  1  0.95846010  0.41694181  0.50050470  1
  Al  Al22  1  0.89718019  0.04234599  0.50120834  1
  Al  Al23  1  0.51968878  0.79763928  0.50808579  1
  Al  Al24  1  0.73314198  0.71159626  1.00019502  1
  Al  Al25  1  0.85533379  0.45872799  0.00149457  1
  Al  Al26  1  0.83551157  0.66780998  0.50142959  1
  Al  Al27  1  0.64962346  0.54096225  0.50665689  1
  Al  Al28  1  0.77269182  0.29110443  0.50268189  1
  Al  Al29  1  0.58417104  0.16750317  0.50399911  1
  Al  Al30  1  0.70978339  0.91668670  0.50333155  1
  Os  Os31  1  0.54171523  0.58289750  0.09109799  1
  N  N32  1  0.22831699  0.70831227  0.62226982  1
  N  N33  1  0.35301887  0.45788396  0.62317767  1
  N  N34  1  0.04108638  0.58354089  0.62155315  1
  N  N35  1  0.16587673  0.33400902  0.62190181  1
  N  N36  1  0.29067682  0.08403824  0.62367417  1
  N  N37  1  0.47920628  0.20514346  0.62482411  1
  N  N38  1  0.10384118  0.95882372  0.62156742  1
  N  N39  1  0.41504741  0.83265597  0.62420806  1
  N  N40  1  0.33223470  0.66547794  0.12354043  1
  N  N41  1  0.45093127  0.40278672  0.12449874  1
  N  N42  1  0.14520180  0.54175532  0.12179277  1
  N  N43  1  0.26889707  0.29101770  0.12314825  1
  N  N44  1  0.39365224  0.04121087  0.12460077  1
  N  N45  1  0.08315446  0.16670298  0.12139325  1
  N  N46  1  0.20775751  0.91627405  0.12250123  1
  N  N47  1  0.02125923  0.79178117  0.12154270  1
  N  N48  1  0.73083078  0.70896871  0.62367481  1
  N  N49  1  0.85442149  0.45913057  0.62292207  1
  N  N50  1  0.54164334  0.58250783  0.52810269  1
  N  N51  1  0.66781560  0.33228530  0.62449565  1
  N  N52  1  0.79271700  0.08288778  0.62377449  1
  N  N53  1  0.97941357  0.20934778  0.62182361  1
  N  N54  1  0.60527216  0.95812003  0.62523344  1
  N  N55  1  0.91752993  0.83447788  0.62222157  1
  N  N56  1  0.83557683  0.66768567  0.12292542  1
  N  N57  1  0.95857515  0.41678429  0.12194913  1
  N  N58  1  0.65493925  0.53920314  0.12440766  1
  N  N59  1  0.77261772  0.29033790  0.12382720  1
  N  N60  1  0.89683845  0.04178971  0.12263035  1
  N  N61  1  0.58393724  0.16868816  0.12496546  1
  N  N62  1  0.70923831  0.91624128  0.12450370  1
  N  N63  1  0.51837823  0.80907506  0.12515928  1
