# generated using pymatgen
data_Al31VN32
_symmetry_space_group_name_H-M   'P 1'
_cell_length_a   16.56443356
_cell_length_b   8.28049627
_cell_length_c   5.02335382
_cell_angle_alpha   90.00076338
_cell_angle_beta   89.99582376
_cell_angle_gamma   98.20737816
_symmetry_Int_Tables_number   1
_chemical_formula_structural   Al31VN32
_chemical_formula_sum   'Al31 V1 N32'
_cell_volume   681.95494159
_cell_formula_units_Z   1
loop_
 _symmetry_equiv_pos_site_id
 _symmetry_equiv_pos_as_xyz
  1  'x, y, z'
loop_
 _atom_site_type_symbol
 _atom_site_label
 _atom_site_symmetry_multiplicity
 _atom_site_fract_x
 _atom_site_fract_y
 _atom_site_fract_z
 _atom_site_occupancy
  Al  Al0  1  0.16609640  0.33336503  0.00151626  1
  Al  Al1  1  0.29073632  0.08337226  0.00162965  1
  Al  Al2  1  0.47904821  0.20309441  0.00099752  1
  Al  Al3  1  0.10385512  0.95858008  0.00153269  1
  Al  Al4  1  0.41391651  0.83419643  0.00101698  1
  Al  Al5  1  0.45625399  0.41284413  0.50672983  1
  Al  Al6  1  0.39468288  0.04128569  0.50195026  1
  Al  Al7  1  0.02084940  0.79174169  0.50153864  1
  Al  Al8  1  0.22780668  0.70872373  0.00174826  1
  Al  Al9  1  0.35111037  0.45867927  0.00060656  1
  Al  Al10  1  0.04137861  0.58336820  0.00147909  1
  Al  Al11  1  0.33200534  0.66690795  0.50215566  1
  Al  Al12  1  0.14516750  0.54149832  0.50167444  1
  Al  Al13  1  0.26981209  0.29105423  0.50167666  1
  Al  Al14  1  0.08330257  0.16676191  0.50148453  1
  Al  Al15  1  0.20766638  0.91696491  0.50164357  1
  Al  Al16  1  0.66801727  0.32898525  0.00132632  1
  Al  Al17  1  0.79301841  0.08423918  0.00225419  1
  Al  Al18  1  0.97954092  0.20896714  0.00158271  1
  Al  Al19  1  0.60616908  0.96045716  0.00169457  1
  Al  Al20  1  0.91742155  0.83431342  0.00164848  1
  Al  Al21  1  0.95842815  0.41673249  0.50144264  1
  Al  Al22  1  0.89659524  0.04244733  0.50183528  1
  Al  Al23  1  0.52020242  0.79532260  0.50700354  1
  Al  Al24  1  0.73200944  0.71159200  0.00108664  1
  Al  Al25  1  0.85477207  0.45881220  0.00160577  1
  Al  Al26  1  0.83465798  0.66732646  0.50183194  1
  Al  Al27  1  0.64833951  0.54077876  0.50710689  1
  Al  Al28  1  0.77197954  0.29172282  0.50218912  1
  Al  Al29  1  0.58367822  0.16621932  0.50280825  1
  Al  Al30  1  0.70956768  0.91747826  0.50277383  1
  V  V31  1  0.54169922  0.58221987  0.01251330  1
  N  N32  1  0.22884369  0.70866068  0.62246101  1
  N  N33  1  0.35403118  0.45901766  0.62233873  1
  N  N34  1  0.04133510  0.58333126  0.62218145  1
  N  N35  1  0.16677819  0.33363420  0.62236978  1
  N  N36  1  0.29178705  0.08375781  0.62265287  1
  N  N37  1  0.47944435  0.20705982  0.62278371  1
  N  N38  1  0.10405672  0.95850671  0.62225504  1
  N  N39  1  0.41632800  0.83300081  0.62284959  1
  N  N40  1  0.33307746  0.66680925  0.12303334  1
  N  N41  1  0.45573253  0.41101288  0.12379354  1
  N  N42  1  0.14569015  0.54164140  0.12229339  1
  N  N43  1  0.27062155  0.29163744  0.12261971  1
  N  N44  1  0.39539004  0.04144838  0.12307368  1
  N  N45  1  0.08345522  0.16692936  0.12224661  1
  N  N46  1  0.20835257  0.91706169  0.12239266  1
  N  N47  1  0.02084411  0.79173370  0.12227913  1
  N  N48  1  0.72935191  0.70870445  0.62287899  1
  N  N49  1  0.85388013  0.45885394  0.62259542  1
  N  N50  1  0.54163510  0.58267398  0.61278330  1
  N  N51  1  0.66655139  0.33231181  0.62319412  1
  N  N52  1  0.79181777  0.08373643  0.62318524  1
  N  N53  1  0.97930473  0.20884809  0.62232882  1
  N  N54  1  0.60458915  0.95775977  0.62333271  1
  N  N55  1  0.91663331  0.83400933  0.62258516  1
  N  N56  1  0.83385349  0.66721516  0.12284862  1
  N  N57  1  0.95811707  0.41675998  0.12226057  1
  N  N58  1  0.64899967  0.54011810  0.12404719  1
  N  N59  1  0.77108901  0.29144267  0.12313966  1
  N  N60  1  0.89606749  0.04206471  0.12270901  1
  N  N61  1  0.58339850  0.16661464  0.12370007  1
  N  N62  1  0.70863103  0.91669261  0.12357305  1
  N  N63  1  0.52007868  0.79773626  0.12432001  1
