# generated using pymatgen
data_Al31OsN32
_symmetry_space_group_name_H-M   'P 1'
_cell_length_a   8.16399338
_cell_length_b   8.16169557
_cell_length_c   8.16602355
_cell_angle_alpha   90.01329227
_cell_angle_beta   89.98907835
_cell_angle_gamma   90.01684126
_symmetry_Int_Tables_number   1
_chemical_formula_structural   Al31OsN32
_chemical_formula_sum   'Al31 Os1 N32'
_cell_volume   544.11866637
_cell_formula_units_Z   1
loop_
 _symmetry_equiv_pos_site_id
 _symmetry_equiv_pos_as_xyz
  1  'x, y, z'
loop_
 _atom_site_type_symbol
 _atom_site_label
 _atom_site_symmetry_multiplicity
 _atom_site_fract_x
 _atom_site_fract_y
 _atom_site_fract_z
 _atom_site_occupancy
  Al  Al0  1  -0.00037037  0.00019546  0.00021170  1
  Al  Al1  1  0.99967899  0.25066411  0.25027732  1
  Al  Al2  1  0.25048184  0.00089100  0.25074060  1
  Al  Al3  1  0.25035984  0.25000899  -0.00049009  1
  Al  Al4  1  0.00039833  1.00099805  0.49993095  1
  Al  Al5  1  0.99974952  0.24985746  0.75000599  1
  Al  Al6  1  0.25116886  1.00015132  0.74911903  1
  Al  Al7  1  0.25162071  0.25097890  0.50019584  1
  Al  Al8  1  0.00025700  0.49978647  -0.00071049  1
  Al  Al9  1  0.00027822  0.74889689  0.25074085  1
  Al  Al10  1  0.24878795  0.49907384  0.24919677  1
  Al  Al11  1  0.24968469  0.75003550  0.00050218  1
  Al  Al12  1  1.00025216  0.49857093  0.50213330  1
  Al  Al13  1  0.00033664  0.74984743  0.74955511  1
  Al  Al14  1  0.25123240  0.49989887  0.74961385  1
  Al  Al15  1  0.24955893  0.75004304  0.49968898  1
  Al  Al16  1  0.49992860  0.99986718  0.00074152  1
  Al  Al17  1  0.50014021  0.25143577  0.24986307  1
  Al  Al18  1  0.74935945  1.00100389  0.25039814  1
  Al  Al19  1  0.74938282  0.25101480  0.99906277  1
  Al  Al20  1  0.50059006  0.99994068  0.49913643  1
  Al  Al21  1  0.50062290  0.24971463  0.75068137  1
  Al  Al22  1  0.74886698  -0.00151683  0.74957906  1
  Al  Al23  1  0.74948644  0.25015604  0.50138723  1
  Al  Al24  1  0.49938319  0.50119080  0.99993703  1
  Al  Al25  1  0.49951402  0.74905908  0.24999278  1
  Al  Al26  1  0.75007833  0.49959866  0.25108661  1
  Al  Al27  1  0.75018270  0.74943849  0.00090793  1
  Al  Al28  1  0.49939613  0.74985258  0.74922037  1
  Al  Al29  1  0.74962521  0.50164616  0.75048498  1
  Al  Al30  1  0.75024131  0.74920452  0.49928176  1
  Os  Os31  1  0.50004391  0.50005915  0.50019358  1
  N  N32  1  0.25206156  0.25051605  0.25154568  1
  N  N33  1  0.24908571  0.00057909  0.99958696  1
  N  N34  1  -0.00070593  0.24914582  0.00022160  1
  N  N35  1  0.99885109  0.00065857  0.24976030  1
  N  N36  1  0.25089221  0.25192065  0.74814870  1
  N  N37  1  0.24829254  0.00096681  0.50025265  1
  N  N38  1  -0.00172445  0.24845263  0.49987101  1
  N  N39  1  0.00029917  0.99927331  0.75071145  1
  N  N40  1  0.25064079  0.74940452  0.25065100  1
  N  N41  1  0.24773687  0.49948079  0.00053159  1
  N  N42  1  0.99941330  0.75078930  1.00008816  1
  N  N43  1  1.00097572  0.49894062  0.24813334  1
  N  N44  1  0.25251582  0.74819600  0.74956494  1
  N  N45  1  0.23690154  0.49896045  0.49947157  1
  N  N46  1  1.00240131  0.75159138  0.50070737  1
  N  N47  1  0.99992217  0.50028815  0.75209936  1
  N  N48  1  0.74752583  0.25307236  0.25039369  1
  N  N49  1  0.75033325  0.99895803  0.00084363  1
  N  N50  1  0.49971997  0.24822909  -0.00247519  1
  N  N51  1  0.50051885  0.00113312  0.24808595  1
  N  N52  1  0.74892518  0.25055620  0.74897907  1
  N  N53  1  0.75147025  0.99989891  0.49924980  1
  N  N54  1  0.50106749  0.23714071  0.50181243  1
  N  N55  1  0.49973616  0.99875483  0.75176106  1
  N  N56  1  0.74943304  0.74709579  0.25276836  1
  N  N57  1  0.75153177  0.50101677  -0.00148266  1
  N  N58  1  0.50034212  0.75164109  1.00254831  1
  N  N59  1  0.49928884  0.49861081  0.23637943  1
  N  N60  1  0.74805519  0.74933399  0.74757641  1
  N  N61  1  0.76389131  0.50068318  0.50082272  1
  N  N62  1  0.49851662  0.76316929  0.49818340  1
  N  N63  1  0.50019946  0.50140553  0.76337544  1
