# generated using pymatgen
data_TaAl31N32
_symmetry_space_group_name_H-M   'P 1'
_cell_length_a   16.61473998
_cell_length_b   8.30281764
_cell_length_c   5.02440350
_cell_angle_alpha   90.00644297
_cell_angle_beta   89.99371277
_cell_angle_gamma   98.19866847
_symmetry_Int_Tables_number   1
_chemical_formula_structural   TaAl31N32
_chemical_formula_sum   'Ta1 Al31 N32'
_cell_volume   686.02829299
_cell_formula_units_Z   1
loop_
 _symmetry_equiv_pos_site_id
 _symmetry_equiv_pos_as_xyz
  1  'x, y, z'
loop_
 _atom_site_type_symbol
 _atom_site_label
 _atom_site_symmetry_multiplicity
 _atom_site_fract_x
 _atom_site_fract_y
 _atom_site_fract_z
 _atom_site_occupancy
  Ta  Ta0  1  0.54158910  0.58260001  0.01295229  1
  Al  Al1  1  0.16465660  0.33301305  0.00040995  1
  Al  Al2  1  0.28901981  0.08278972  0.00211992  1
  Al  Al3  1  0.47828903  0.19930535  0.00285204  1
  Al  Al4  1  0.10363960  0.95821662  0.00020029  1
  Al  Al5  1  0.41106085  0.83491584  0.00148805  1
  Al  Al6  1  0.45391862  0.40903378  0.51012798  1
  Al  Al7  1  0.39300453  0.04094984  0.50411260  1
  Al  Al8  1  0.02131164  0.79181309  0.50005086  1
  Al  Al9  1  0.22676201  0.70827451  0.00092370  1
  Al  Al10  1  0.34766416  0.45735315  0.00038631  1
  Al  Al11  1  0.04149097  0.58327199  0.00005239  1
  Al  Al12  1  0.33085020  0.66601267  0.50315982  1
  Al  Al13  1  0.14446648  0.54162606  0.50036488  1
  Al  Al14  1  0.26793339  0.29000863  0.50186819  1
  Al  Al15  1  0.08280332  0.16665461  0.49992286  1
  Al  Al16  1  0.20685230  0.91643862  0.50106320  1
  Al  Al17  1  0.67018915  0.32705581  0.00291618  1
  Al  Al18  1  0.79441350  0.08402679  0.00285522  1
  Al  Al19  1  0.97969826  0.20877304  0.00031983  1
  Al  Al20  1  0.60779641  0.96495266  0.00331499  1
  Al  Al21  1  0.91871270  0.83476126  0.00080935  1
  Al  Al22  1  0.95885854  0.41681045  0.50037767  1
  Al  Al23  1  0.89757960  0.04234691  0.50135207  1
  Al  Al24  1  0.51972295  0.79981250  0.51028021  1
  Al  Al25  1  0.73514592  0.71480902  0.00133071  1
  Al  Al26  1  0.85607149  0.45881014  0.00161615  1
  Al  Al27  1  0.83656879  0.66771744  0.50195301  1
  Al  Al28  1  0.65128177  0.54083839  0.51031076  1
  Al  Al29  1  0.77389496  0.29128747  0.50333398  1
  Al  Al30  1  0.58404934  0.16786728  0.50589638  1
  Al  Al31  1  0.71056222  0.91806861  0.50469512  1
  N  N32  1  0.22861811  0.70841903  0.62158391  1
  N  N33  1  0.35335298  0.45807099  0.62214309  1
  N  N34  1  0.04116285  0.58356615  0.62070102  1
  N  N35  1  0.16595304  0.33405138  0.62107421  1
  N  N36  1  0.29097253  0.08385900  0.62281661  1
  N  N37  1  0.47907846  0.20628160  0.62436114  1
  N  N38  1  0.10390613  0.95888767  0.62065466  1
  N  N39  1  0.41593807  0.83238898  0.62321736  1
  N  N40  1  0.33266979  0.66575645  0.12370729  1
  N  N41  1  0.45450764  0.40979220  0.12363079  1
  N  N42  1  0.14567305  0.54141389  0.12092706  1
  N  N43  1  0.26951874  0.29073549  0.12257101  1
  N  N44  1  0.39444538  0.04123887  0.12468252  1
  N  N45  1  0.08318326  0.16622365  0.12060426  1
  N  N46  1  0.20806676  0.91607168  0.12159661  1
  N  N47  1  0.02132639  0.79133226  0.12077215  1
  N  N48  1  0.73025576  0.70890169  0.62295835  1
  N  N49  1  0.85434968  0.45921129  0.62244648  1
  N  N50  1  0.54177139  0.58188937  0.60210913  1
  N  N51  1  0.66751016  0.33288002  0.62435922  1
  N  N52  1  0.79238341  0.08301938  0.62375208  1
  N  N53  1  0.97923101  0.20922075  0.62109271  1
  N  N54  1  0.60473374  0.95844417  0.62462276  1
  N  N55  1  0.91735305  0.83450060  0.62160414  1
  N  N56  1  0.83485115  0.66704349  0.12249533  1
  N  N57  1  0.95860330  0.41642882  0.12110659  1
  N  N58  1  0.65030190  0.54085038  0.12372864  1
  N  N59  1  0.77208126  0.29115926  0.12373503  1
  N  N60  1  0.89656836  0.04134098  0.12198485  1
  N  N61  1  0.58335296  0.16874217  0.12570079  1
  N  N62  1  0.70883506  0.91690638  0.12474242  1
  N  N63  1  0.51994718  0.80006212  0.12374612  1
