# generated using pymatgen
data_Al31SiN32
_symmetry_space_group_name_H-M   'P 1'
_cell_length_a   16.51377268
_cell_length_b   8.25680857
_cell_length_c   5.02567751
_cell_angle_alpha   89.99985029
_cell_angle_beta   90.00298096
_cell_angle_gamma   98.21802540
_symmetry_Int_Tables_number   1
_chemical_formula_structural   Al31SiN32
_chemical_formula_sum   'Al31 Si1 N32'
_cell_volume   678.21976751
_cell_formula_units_Z   1
loop_
 _symmetry_equiv_pos_site_id
 _symmetry_equiv_pos_as_xyz
  1  'x, y, z'
loop_
 _atom_site_type_symbol
 _atom_site_label
 _atom_site_symmetry_multiplicity
 _atom_site_fract_x
 _atom_site_fract_y
 _atom_site_fract_z
 _atom_site_occupancy
  Al  Al0  1  0.16669018  0.33409428  -0.00061544  1
  Al  Al1  1  0.29202425  0.08385468  -0.00071680  1
  Al  Al2  1  0.47994601  0.20751493  0.00263050  1
  Al  Al3  1  0.10419568  0.95937733  -0.00122322  1
  Al  Al4  1  0.41634443  0.83199485  0.00355117  1
  Al  Al5  1  0.45828797  0.41585072  0.51168517  1
  Al  Al6  1  0.39588257  0.04143914  0.50264915  1
  Al  Al7  1  0.02104899  0.79213692  0.49904315  1
  Al  Al8  1  0.22855189  0.70906927  -0.00003929  1
  Al  Al9  1  0.35416416  0.45936855  0.00279740  1
  Al  Al10  1  0.04118856  0.58379195  -0.00103717  1
  Al  Al11  1  0.33271183  0.66666880  0.50263618  1
  Al  Al12  1  0.14534723  0.54198721  0.49929083  1
  Al  Al13  1  0.27066710  0.29173867  0.50078004  1
  Al  Al14  1  0.08321066  0.16713364  0.49902608  1
  Al  Al15  1  0.20832870  0.91756704  0.49893834  1
  Al  Al16  1  0.66587323  0.33147089  0.00278614  1
  Al  Al17  1  0.79192141  0.08438600  0.00032884  1
  Al  Al18  1  0.97914922  0.20939837  -0.00111687  1
  Al  Al19  1  0.60479389  0.95571603  0.00419186  1
  Al  Al20  1  0.91664433  0.83377592  -0.00046178  1
  Al  Al21  1  0.95804113  0.41682670  0.49900499  1
  Al  Al22  1  0.89616228  0.04199742  0.49881738  1
  Al  Al23  1  0.52075491  0.79050636  0.51159773  1
  Al  Al24  1  0.72916076  0.70877691  0.00265625  1
  Al  Al25  1  0.85390453  0.45894643  -0.00123652  1
  Al  Al26  1  0.83359277  0.66690224  0.50102757  1
  Al  Al27  1  0.64597919  0.54134786  0.51150522  1
  Al  Al28  1  0.77098262  0.29216572  0.50064251  1
  Al  Al29  1  0.58352041  0.16486113  0.50437899  1
  Al  Al30  1  0.70911933  0.91684203  0.50265062  1
  Si  Si31  1  0.54165299  0.58178635  0.00959965  1
  N  N32  1  0.22925797  0.70901999  0.62085325  1
  N  N33  1  0.35564854  0.45864225  0.62382861  1
  N  N34  1  0.04126467  0.58345064  0.61999264  1
  N  N35  1  0.16710191  0.33393062  0.62021629  1
  N  N36  1  0.29257801  0.08407161  0.62051831  1
  N  N37  1  0.47966374  0.20957614  0.62426595  1
  N  N38  1  0.10448992  0.95907543  0.61989917  1
  N  N39  1  0.41783815  0.83263420  0.62451819  1
  N  N40  1  0.33411962  0.66644826  0.12259320  1
  N  N41  1  0.46379518  0.42531988  0.12439256  1
  N  N42  1  0.14571235  0.54221803  0.12009883  1
  N  N43  1  0.27235694  0.29287129  0.12115615  1
  N  N44  1  0.39743197  0.04179911  0.12279078  1
  N  N45  1  0.08343440  0.16776468  0.11992883  1
  N  N46  1  0.20904663  0.91822473  0.11984296  1
  N  N47  1  0.02075280  0.79240698  0.11991754  1
  N  N48  1  0.72788230  0.70689008  0.62392067  1
  N  N49  1  0.85341995  0.45861853  0.62036704  1
  N  N50  1  0.54163544  0.58258987  0.65416002  1
  N  N51  1  0.66567171  0.33408091  0.62426467  1
  N  N52  1  0.79135620  0.08402350  0.62129184  1
  N  N53  1  0.97894699  0.20872041  0.61993974  1
  N  N54  1  0.60363266  0.95523449  0.62533932  1
  N  N55  1  0.91634232  0.83340736  0.62027330  1
  N  N56  1  0.83189720  0.66634132  0.12148795  1
  N  N57  1  0.95748583  0.41732519  0.12002330  1
  N  N58  1  0.63921665  0.54279834  0.12430274  1
  N  N59  1  0.76939069  0.29306781  0.12127750  1
  N  N60  1  0.89552417  0.04216798  0.11986896  1
  N  N61  1  0.58294337  0.16382553  0.12407561  1
  N  N62  1  0.70793372  0.91525653  0.12295687  1
  N  N63  1  0.52197579  0.77701474  0.12497666  1
