# generated using pymatgen
data_Ti11BN12
_symmetry_space_group_name_H-M   'P 1'
_cell_length_a   4.24623228
_cell_length_b   6.03896030
_cell_length_c   10.25615222
_cell_angle_alpha   90.00340798
_cell_angle_beta   90.00398083
_cell_angle_gamma   89.82121627
_symmetry_Int_Tables_number   1
_chemical_formula_structural   Ti11BN12
_chemical_formula_sum   'Ti11 B1 N12'
_cell_volume   262.99546782
_cell_formula_units_Z   1
loop_
 _symmetry_equiv_pos_site_id
 _symmetry_equiv_pos_as_xyz
  1  'x, y, z'
loop_
 _atom_site_type_symbol
 _atom_site_label
 _atom_site_symmetry_multiplicity
 _atom_site_fract_x
 _atom_site_fract_y
 _atom_site_fract_z
 _atom_site_occupancy
  Ti  Ti0  1  0.05611523  0.16753389  0.82783730  1
  Ti  Ti1  1  0.56299666  0.83941116  0.16674723  1
  Ti  Ti2  1  0.56243436  0.32824620  0.99251976  1
  Ti  Ti3  1  0.06265992  0.17066437  0.16660849  1
  Ti  Ti4  1  0.06514223  0.66127530  0.33053767  1
  Ti  Ti5  1  0.05631728  0.16807437  0.50545317  1
  Ti  Ti6  1  0.07751554  0.67903202  0.66652656  1
  Ti  Ti7  1  0.06503375  0.66108800  1.00294435  1
  Ti  Ti8  1  0.56231447  0.32834967  0.34070333  1
  Ti  Ti9  1  0.56916956  0.83985122  0.49664341  1
  Ti  Ti10  1  0.56927853  0.83938202  0.83670378  1
  B  B11  1  0.44272654  0.24357424  0.66673539  1
  N  N12  1  0.56278292  0.17567546  0.16661926  1
  N  N13  1  0.56557826  0.65654729  0.33118137  1
  N  N14  1  0.56055749  0.18242988  0.53442086  1
  N  N15  1  0.58070973  0.69873036  0.66657712  1
  N  N16  1  0.56082707  0.18224112  0.79896832  1
  N  N17  1  0.56548048  0.65643643  1.00242714  1
  N  N18  1  0.06286211  0.84059070  0.16674432  1
  N  N19  1  0.06225101  0.32588586  0.34094677  1
  N  N20  1  0.06951739  0.83960029  0.49574626  1
  N  N21  1  0.12771899  0.35117505  0.66693214  1
  N  N22  1  0.06975042  0.83900719  0.83761650  1
  N  N23  1  0.06249975  0.32557237  0.99211597  1
