# generated using pymatgen
data_YAl31N32
_symmetry_space_group_name_H-M   'P 1'
_cell_length_a   16.69065441
_cell_length_b   8.33545295
_cell_length_c   5.04069815
_cell_angle_alpha   89.99747925
_cell_angle_beta   89.99705924
_cell_angle_gamma   98.18493541
_symmetry_Int_Tables_number   1
_chemical_formula_structural   YAl31N32
_chemical_formula_sum   'Y1 Al31 N32'
_cell_volume   694.13943781
_cell_formula_units_Z   1
loop_
 _symmetry_equiv_pos_site_id
 _symmetry_equiv_pos_as_xyz
  1  'x, y, z'
loop_
 _atom_site_type_symbol
 _atom_site_label
 _atom_site_symmetry_multiplicity
 _atom_site_fract_x
 _atom_site_fract_y
 _atom_site_fract_z
 _atom_site_occupancy
  Y  Y0  1  0.54262582  0.58389556  0.01068727  1
  Al  Al1  1  0.16364844  0.33119453  0.00284506  1
  Al  Al2  1  0.28739260  0.08199408  0.00368940  1
  Al  Al3  1  0.47510379  0.20064659  0.00471781  1
  Al  Al4  1  0.10297936  0.95658569  0.00314042  1
  Al  Al5  1  0.41215077  0.83879070  0.00304254  1
  Al  Al6  1  0.45282571  0.41140837  0.49578913  1
  Al  Al7  1  0.39265431  0.04185174  0.50122982  1
  Al  Al8  1  0.02106925  0.79022533  0.50310459  1
  Al  Al9  1  0.22687218  0.70697613  0.00330045  1
  Al  Al10  1  0.34675980  0.45336430  0.00279344  1
  Al  Al11  1  0.04224797  0.58294356  0.00341440  1
  Al  Al12  1  0.33086257  0.66687600  0.50301596  1
  Al  Al13  1  0.14522852  0.53960027  0.50337329  1
  Al  Al14  1  0.26786502  0.28915235  0.50201946  1
  Al  Al15  1  0.08307908  0.16477173  0.50314894  1
  Al  Al16  1  0.20599867  0.91404116  0.50319893  1
  Al  Al17  1  0.67316925  0.33120073  0.00331496  1
  Al  Al18  1  0.79463558  0.08159535  0.00337967  1
  Al  Al19  1  0.98003411  0.20764667  0.00368408  1
  Al  Al20  1  0.60584686  0.97043628  0.00392354  1
  Al  Al21  1  0.91946847  0.83440548  0.00293039  1
  Al  Al22  1  0.96026569  0.41583794  0.50335712  1
  Al  Al23  1  0.89757633  0.04156244  0.50383077  1
  Al  Al24  1  0.51961603  0.80417202  0.49712810  1
  Al  Al25  1  0.73673049  0.71112416  0.00352437  1
  Al  Al26  1  0.85722310  0.45788923  0.00492271  1
  Al  Al27  1  0.83662172  0.66688379  0.50285156  1
  Al  Al28  1  0.65229218  0.54146259  0.49696616  1
  Al  Al29  1  0.77397598  0.29083026  0.50373928  1
  Al  Al30  1  0.58341527  0.17140177  0.50290486  1
  Al  Al31  1  0.71006358  0.91826798  0.50460250  1
  N  N32  1  0.22730492  0.70696172  0.62398957  1
  N  N33  1  0.35016342  0.45786868  0.62334281  1
  N  N34  1  0.04220956  0.58306723  0.62422382  1
  N  N35  1  0.16485774  0.33169505  0.62396232  1
  N  N36  1  0.28870602  0.08161105  0.62344136  1
  N  N37  1  0.47797714  0.20638143  0.62358886  1
  N  N38  1  0.10296868  0.95702338  0.62428681  1
  N  N39  1  0.41392667  0.83392557  0.62371221  1
  N  N40  1  0.33067422  0.66635013  0.12333923  1
  N  N41  1  0.44350467  0.39390332  0.12567463  1
  N  N42  1  0.14514417  0.53974932  0.12434160  1
  N  N43  1  0.26517283  0.28791484  0.12429331  1
  N  N44  1  0.38992714  0.04083826  0.12414285  1
  N  N45  1  0.08254327  0.16395402  0.12454255  1
  N  N46  1  0.20573764  0.91352689  0.12414991  1
  N  N47  1  0.02167739  0.79012250  0.12443542  1
  N  N48  1  0.73285806  0.71109083  0.62440165  1
  N  N49  1  0.85658120  0.45822986  0.62459343  1
  N  N50  1  0.54205224  0.58497407  0.54739101  1
  N  N51  1  0.66934084  0.33212445  0.62405715  1
  N  N52  1  0.79383852  0.08265296  0.62410906  1
  N  N53  1  0.98007018  0.20795086  0.62456261  1
  N  N54  1  0.60615870  0.96309848  0.62388920  1
  N  N55  1  0.91832137  0.83414763  0.62417834  1
  N  N56  1  0.83915288  0.66785173  0.12468727  1
  N  N57  1  0.96057392  0.41549184  0.12429893  1
  N  N58  1  0.66447630  0.53754265  0.12782139  1
  N  N59  1  0.77576134  0.28780194  0.12489037  1
  N  N60  1  0.89784643  0.04068714  0.12470502  1
  N  N61  1  0.58377371  0.17720027  0.12288047  1
  N  N62  1  0.70964699  0.91821859  0.12339356  1
  N  N63  1  0.51721520  0.82753896  0.12647387  1
