# generated using pymatgen
data_Al31CoN32
_symmetry_space_group_name_H-M   'P 1'
_cell_length_a   16.56511690
_cell_length_b   8.28197122
_cell_length_c   5.03079863
_cell_angle_alpha   90.00053387
_cell_angle_beta   89.99929550
_cell_angle_gamma   98.20530449
_symmetry_Int_Tables_number   1
_chemical_formula_structural   Al31CoN32
_chemical_formula_sum   'Al31 Co1 N32'
_cell_volume   683.11902411
_cell_formula_units_Z   1
loop_
 _symmetry_equiv_pos_site_id
 _symmetry_equiv_pos_as_xyz
  1  'x, y, z'
loop_
 _atom_site_type_symbol
 _atom_site_label
 _atom_site_symmetry_multiplicity
 _atom_site_fract_x
 _atom_site_fract_y
 _atom_site_fract_z
 _atom_site_occupancy
  Al  Al0  1  0.16529384  0.33328269  0.00223054  1
  Al  Al1  1  0.29069471  0.08350414  0.00292082  1
  Al  Al2  1  0.47904907  0.20695650  0.00195235  1
  Al  Al3  1  0.10412092  0.95846307  0.00206072  1
  Al  Al4  1  0.41541857  0.83250446  0.00122256  1
  Al  Al5  1  0.45771373  0.41630848  0.50230098  1
  Al  Al6  1  0.39465226  0.04112064  0.50195631  1
  Al  Al7  1  0.02150197  0.79162571  0.50197071  1
  Al  Al8  1  0.22840691  0.70808316  0.00238625  1
  Al  Al9  1  0.35266045  0.45765037  0.00113628  1
  Al  Al10  1  0.04167520  0.58338318  0.00223461  1
  Al  Al11  1  0.33269117  0.66568945  0.50157651  1
  Al  Al12  1  0.14556338  0.54147463  0.50214875  1
  Al  Al13  1  0.26926384  0.29081204  0.50178026  1
  Al  Al14  1  0.08275389  0.16619046  0.50200138  1
  Al  Al15  1  0.20795243  0.91610729  0.50244437  1
  Al  Al16  1  0.66758214  0.33305857  0.00168277  1
  Al  Al17  1  0.79264871  0.08326451  0.00269578  1
  Al  Al18  1  0.97899987  0.20820891  0.00225368  1
  Al  Al19  1  0.60497581  0.95960926  0.00131403  1
  Al  Al20  1  0.91779973  0.83337284  0.00233960  1
  Al  Al21  1  0.95878930  0.41678833  0.50254251  1
  Al  Al22  1  0.89636537  0.04097605  0.50232908  1
  Al  Al23  1  0.52074357  0.79275484  0.50242070  1
  Al  Al24  1  0.73067155  0.71043486  0.00135953  1
  Al  Al25  1  0.85484721  0.45864212  0.00280218  1
  Al  Al26  1  0.83459707  0.66691322  0.50207187  1
  Al  Al27  1  0.64676556  0.54249543  0.50234223  1
  Al  Al28  1  0.77200525  0.29111058  0.50252695  1
  Al  Al29  1  0.58355012  0.16838031  0.50194370  1
  Al  Al30  1  0.70875873  0.91721180  0.50170101  1
  Co  Co31  1  0.54198733  0.58293543  0.00516170  1
  N  N32  1  0.22858376  0.70789764  0.62385472  1
  N  N33  1  0.35273054  0.45711472  0.62207725  1
  N  N34  1  0.04181939  0.58353081  0.62384969  1
  N  N35  1  0.16544537  0.33319553  0.62363938  1
  N  N36  1  0.29060582  0.08327103  0.62407590  1
  N  N37  1  0.47880740  0.20674932  0.62228978  1
  N  N38  1  0.10415146  0.95852362  0.62372362  1
  N  N39  1  0.41568057  0.83278534  0.62247488  1
  N  N40  1  0.33220550  0.66598195  0.12335748  1
  N  N41  1  0.45579673  0.41293436  0.12128878  1
  N  N42  1  0.14529807  0.54145791  0.12398865  1
  N  N43  1  0.26884847  0.29080615  0.12340828  1
  N  N44  1  0.39457380  0.04121963  0.12366246  1
  N  N45  1  0.08267437  0.16612166  0.12367059  1
  N  N46  1  0.20778738  0.91621610  0.12421310  1
  N  N47  1  0.02156050  0.79158318  0.12381855  1
  N  N48  1  0.73063007  0.70981294  0.62220615  1
  N  N49  1  0.85495125  0.45842141  0.62428556  1
  N  N50  1  0.54183994  0.58333958  0.61260061  1
  N  N51  1  0.66777615  0.33324216  0.62258731  1
  N  N52  1  0.79251158  0.08293730  0.62405039  1
  N  N53  1  0.97901657  0.20843273  0.62388577  1
  N  N54  1  0.60473433  0.95992456  0.62249053  1
  N  N55  1  0.91778905  0.83352006  0.62383015  1
  N  N56  1  0.83491266  0.66727927  0.12357556  1
  N  N57  1  0.95882644  0.41664353  0.12417772  1
  N  N58  1  0.64906628  0.54225110  0.12092834  1
  N  N59  1  0.77219005  0.29116982  0.12399216  1
  N  N60  1  0.89649818  0.04100387  0.12386568  1
  N  N61  1  0.58383232  0.16821728  0.12330637  1
  N  N62  1  0.70925540  0.91781898  0.12330480  1
  N  N63  1  0.52021299  0.79675313  0.12141759  1
