# generated using pymatgen
data_Al31BN32
_symmetry_space_group_name_H-M   'P 1'
_cell_length_a   16.47138673
_cell_length_b   8.23422677
_cell_length_c   4.99963294
_cell_angle_alpha   89.99005668
_cell_angle_beta   90.00427610
_cell_angle_gamma   98.20577550
_symmetry_Int_Tables_number   1
_chemical_formula_structural   Al31BN32
_chemical_formula_sum   'Al31 B1 N32'
_cell_volume   671.15342426
_cell_formula_units_Z   1
loop_
 _symmetry_equiv_pos_site_id
 _symmetry_equiv_pos_as_xyz
  1  'x, y, z'
loop_
 _atom_site_type_symbol
 _atom_site_label
 _atom_site_symmetry_multiplicity
 _atom_site_fract_x
 _atom_site_fract_y
 _atom_site_fract_z
 _atom_site_occupancy
  Al  Al0  1  0.16851306  0.33423215  0.00212379  1
  Al  Al1  1  0.29437480  0.08407105  0.00164172  1
  Al  Al2  1  0.48147837  0.21608006  0.00208889  1
  Al  Al3  1  0.10472645  0.95899380  0.00175130  1
  Al  Al4  1  0.42078975  0.82863460  0.00272179  1
  Al  Al5  1  0.46251320  0.42285013  0.50711737  1
  Al  Al6  1  0.39766897  0.04188305  0.50166786  1
  Al  Al7  1  0.02084462  0.79247890  0.50174008  1
  Al  Al8  1  0.23064281  0.70888160  0.00179710  1
  Al  Al9  1  0.36017315  0.46192882  0.00274767  1
  Al  Al10  1  0.04150712  0.58346129  0.00160522  1
  Al  Al11  1  0.33458881  0.66658132  0.50176709  1
  Al  Al12  1  0.14627016  0.54267233  0.50186872  1
  Al  Al13  1  0.27249821  0.29310719  0.50195075  1
  Al  Al14  1  0.08336865  0.16769762  0.50172185  1
  Al  Al15  1  0.20942825  0.91780252  0.50153273  1
  Al  Al16  1  0.66218696  0.33697893  0.00240883  1
  Al  Al17  1  0.78960066  0.08399924  0.00142527  1
  Al  Al18  1  0.97857728  0.20868232  0.00155291  1
  Al  Al19  1  0.60187323  0.94843196  0.00205371  1
  Al  Al20  1  0.91481464  0.83229947  0.00172796  1
  Al  Al21  1  0.95756728  0.41744244  0.50149731  1
  Al  Al22  1  0.89503607  0.04166778  0.50131135  1
  Al  Al23  1  0.52185224  0.78139830  0.50712814  1
  Al  Al24  1  0.72305419  0.70475340  0.00183709  1
  Al  Al25  1  0.85222085  0.45881269  0.00086269  1
  Al  Al26  1  0.83138437  0.66647018  0.50115196  1
  Al  Al27  1  0.64078865  0.54256246  0.50681503  1
  Al  Al28  1  0.76934696  0.29251107  0.50105170  1
  Al  Al29  1  0.58302263  0.16454427  0.50117097  1
  Al  Al30  1  0.70727163  0.91584485  0.50074699  1
  B  B31  1  0.54167463  0.58262355  0.00786078  1
  N  N32  1  0.23017059  0.70890034  0.62174335  1
  N  N33  1  0.35662685  0.45872783  0.62131766  1
  N  N34  1  0.04162413  0.58353242  0.62154513  1
  N  N35  1  0.16758063  0.33393284  0.62156651  1
  N  N36  1  0.29310342  0.08391605  0.62119995  1
  N  N37  1  0.47978129  0.21116196  0.62101290  1
  N  N38  1  0.10478910  0.95903315  0.62148300  1
  N  N39  1  0.41863347  0.83247038  0.62115728  1
  N  N40  1  0.33497274  0.66728999  0.12162663  1
  N  N41  1  0.46869580  0.43434788  0.12017065  1
  N  N42  1  0.14634824  0.54254524  0.12159435  1
  N  N43  1  0.27426665  0.29426357  0.12069296  1
  N  N44  1  0.39930867  0.04185612  0.12021296  1
  N  N45  1  0.08367262  0.16812115  0.12124338  1
  N  N46  1  0.20967413  0.91826197  0.12125516  1
  N  N47  1  0.02028363  0.79240369  0.12116982  1
  N  N48  1  0.72673010  0.70633160  0.62061035  1
  N  N49  1  0.85318851  0.45851406  0.62099486  1
  N  N50  1  0.54162166  0.58249105  0.67391260  1
  N  N51  1  0.66514226  0.33476794  0.62074916  1
  N  N52  1  0.79052237  0.08352831  0.62113230  1
  N  N53  1  0.97867230  0.20863706  0.62141107  1
  N  N54  1  0.60276123  0.95489183  0.62103282  1
  N  N55  1  0.91585241  0.83260190  0.62114822  1
  N  N56  1  0.82967551  0.66630438  0.12035537  1
  N  N57  1  0.95713548  0.41758369  0.12124486  1
  N  N58  1  0.63316239  0.54480512  0.11981428  1
  N  N59  1  0.76786463  0.29373295  0.12038421  1
  N  N60  1  0.89454828  0.04205007  0.12098609  1
  N  N61  1  0.58286091  0.16135087  0.12078313  1
  N  N62  1  0.70702129  0.91558409  0.12110423  1
  N  N63  1  0.52334486  0.76584607  0.12034957  1
