# generated using pymatgen
data_Ti11CoN12
_symmetry_space_group_name_H-M   'P 1'
_cell_length_a   4.24865668
_cell_length_b   6.04085539
_cell_length_c   10.40442700
_cell_angle_alpha   90.00585909
_cell_angle_beta   89.99932364
_cell_angle_gamma   90.00129073
_symmetry_Int_Tables_number   1
_chemical_formula_structural   Ti11CoN12
_chemical_formula_sum   'Ti11 Co1 N12'
_cell_volume   267.03503419
_cell_formula_units_Z   1
loop_
 _symmetry_equiv_pos_site_id
 _symmetry_equiv_pos_as_xyz
  1  'x, y, z'
loop_
 _atom_site_type_symbol
 _atom_site_label
 _atom_site_symmetry_multiplicity
 _atom_site_fract_x
 _atom_site_fract_y
 _atom_site_fract_z
 _atom_site_occupancy
  Ti  Ti0  1  0.06291211  0.17451558  0.83291686  1
  Ti  Ti1  1  0.56209782  0.83137889  0.16673583  1
  Ti  Ti2  1  0.56239929  0.34220594  1.00523936  1
  Ti  Ti3  1  0.06281088  0.16476533  0.16669741  1
  Ti  Ti4  1  0.06277661  0.67264312  0.33569621  1
  Ti  Ti5  1  0.06271243  0.17447408  0.50050363  1
  Ti  Ti6  1  0.06251315  0.65495077  0.66670795  1
  Ti  Ti7  1  0.06295660  0.67271789  -0.00232046  1
  Ti  Ti8  1  0.56247011  0.34218964  0.32815873  1
  Ti  Ti9  1  0.56255282  0.84030286  0.50355233  1
  Ti  Ti10  1  0.56261453  0.84035706  0.82979484  1
  Co  Co11  1  0.56262411  0.23346437  0.66669393  1
  N  N12  1  0.56235195  0.16123173  0.16664856  1
  N  N13  1  0.56222350  0.67442710  0.33742783  1
  N  N14  1  0.56232431  0.17475868  0.49078304  1
  N  N15  1  0.56224997  0.67663260  0.66675871  1
  N  N16  1  0.56213246  0.17478352  0.84267034  1
  N  N17  1  0.56213570  0.67449351  0.99597802  1
  N  N18  1  0.06278903  0.83086336  0.16669960  1
  N  N19  1  0.06256141  0.34179403  0.33113152  1
  N  N20  1  0.06285293  0.83966869  0.50407009  1
  N  N21  1  0.06208932  0.32801321  0.66672236  1
  N  N22  1  0.06286528  0.83969740  0.82926774  1
  N  N23  1  0.06258638  0.34189251  1.00226279  1
