# generated using pymatgen
data_Ti11SiN12
_symmetry_space_group_name_H-M   'P 1'
_cell_length_a   4.23923362
_cell_length_b   6.03878281
_cell_length_c   10.35615468
_cell_angle_alpha   90.00053257
_cell_angle_beta   90.00242171
_cell_angle_gamma   90.01251068
_symmetry_Int_Tables_number   1
_chemical_formula_structural   Ti11SiN12
_chemical_formula_sum   'Ti11 Si1 N12'
_cell_volume   265.11559729
_cell_formula_units_Z   1
loop_
 _symmetry_equiv_pos_site_id
 _symmetry_equiv_pos_as_xyz
  1  'x, y, z'
loop_
 _atom_site_type_symbol
 _atom_site_label
 _atom_site_symmetry_multiplicity
 _atom_site_fract_x
 _atom_site_fract_y
 _atom_site_fract_z
 _atom_site_occupancy
  Ti  Ti0  1  0.05902131  0.16511474  0.83369998  1
  Ti  Ti1  1  0.56333687  0.83199058  0.16656800  1
  Ti  Ti2  1  0.56235448  0.33285089  0.99851187  1
  Ti  Ti3  1  0.06301464  0.16503362  0.16659267  1
  Ti  Ti4  1  0.06226317  0.66602929  0.33446426  1
  Ti  Ti5  1  0.05895572  0.16515510  0.49954185  1
  Ti  Ti6  1  0.06005415  0.67082672  0.66655927  1
  Ti  Ti7  1  0.06220938  0.66600170  0.99876088  1
  Ti  Ti8  1  0.56264643  0.33285518  0.33477987  1
  Ti  Ti9  1  0.56167604  0.83645048  0.50227115  1
  Ti  Ti10  1  0.56197259  0.83643432  0.83096466  1
  Si  Si11  1  0.52104215  0.33533599  0.66653452  1
  N  N12  1  0.56253448  0.16824659  0.16658600  1
  N  N13  1  0.56273907  0.66446588  0.33657523  1
  N  N14  1  0.56782466  0.18590031  0.52021131  1
  N  N15  1  0.56821605  0.62559671  0.66659960  1
  N  N16  1  0.56779088  0.18596282  0.81311919  1
  N  N17  1  0.56266689  0.66435276  0.99664099  1
  N  N18  1  0.06279705  0.83056579  0.16660665  1
  N  N19  1  0.06236770  0.33111799  0.33538446  1
  N  N20  1  0.06261231  0.83773287  0.50209817  1
  N  N21  1  0.09707250  0.33512394  0.66669681  1
  N  N22  1  0.06242755  0.83759560  0.83108391  1
  N  N23  1  0.06235687  0.33117935  0.99777684  1
