# generated using pymatgen
data_Ti11NiN12
_symmetry_space_group_name_H-M   'P 1'
_cell_length_a   4.23191163
_cell_length_b   6.08558383
_cell_length_c   10.42681697
_cell_angle_alpha   89.99966642
_cell_angle_beta   89.99996934
_cell_angle_gamma   90.00658220
_symmetry_Int_Tables_number   1
_chemical_formula_structural   Ti11NiN12
_chemical_formula_sum   'Ti11 Ni1 N12'
_cell_volume   268.52862472
_cell_formula_units_Z   1
loop_
 _symmetry_equiv_pos_site_id
 _symmetry_equiv_pos_as_xyz
  1  'x, y, z'
loop_
 _atom_site_type_symbol
 _atom_site_label
 _atom_site_symmetry_multiplicity
 _atom_site_fract_x
 _atom_site_fract_y
 _atom_site_fract_z
 _atom_site_occupancy
  Ti  Ti0  1  0.06236026  0.17696100  0.83033270  1
  Ti  Ti1  1  0.56248852  0.83308870  0.16661937  1
  Ti  Ti2  1  0.56234839  0.34050677  0.00483106  1
  Ti  Ti3  1  0.06254901  0.16509504  0.16669770  1
  Ti  Ti4  1  0.06230364  0.67170905  0.33419680  1
  Ti  Ti5  1  0.06228448  0.17694798  0.50296159  1
  Ti  Ti6  1  0.06221621  0.66317124  0.66667743  1
  Ti  Ti7  1  0.06229030  0.67178740  0.99911758  1
  Ti  Ti8  1  0.56238798  0.34048574  0.32847945  1
  Ti  Ti9  1  0.56259975  0.84126688  0.50089818  1
  Ti  Ti10  1  0.56261311  0.84119379  0.83246593  1
  Ni  Ni11  1  0.56228694  0.20535332  0.66670655  1
  N  N12  1  0.56239439  0.16236277  0.16657079  1
  N  N13  1  0.56238883  0.67224291  0.33610228  1
  N  N14  1  0.56229975  0.16958905  0.48698977  1
  N  N15  1  0.56254051  0.69119552  0.66666327  1
  N  N16  1  0.56241661  0.16960111  0.84621637  1
  N  N17  1  0.56239638  0.67240761  0.99716714  1
  N  N18  1  0.06228275  0.83159601  0.16672591  1
  N  N19  1  0.06230516  0.34045879  0.33332207  1
  N  N20  1  0.06218444  0.84139588  0.50280529  1
  N  N21  1  0.06243578  0.33943324  0.66665728  1
  N  N22  1  0.06219261  0.84135499  0.83042495  1
  N  N23  1  0.06242686  0.34061181  0.99999873  1
