# generated using pymatgen
data_Ti11VN12
_symmetry_space_group_name_H-M   'P 1'
_cell_length_a   4.25323324
_cell_length_b   6.02836012
_cell_length_c   10.35898878
_cell_angle_alpha   89.98051687
_cell_angle_beta   90.00685723
_cell_angle_gamma   89.98461643
_symmetry_Int_Tables_number   1
_chemical_formula_structural   Ti11VN12
_chemical_formula_sum   'Ti11 V1 N12'
_cell_volume   265.60466985
_cell_formula_units_Z   1
loop_
 _symmetry_equiv_pos_site_id
 _symmetry_equiv_pos_as_xyz
  1  'x, y, z'
loop_
 _atom_site_type_symbol
 _atom_site_label
 _atom_site_symmetry_multiplicity
 _atom_site_fract_x
 _atom_site_fract_y
 _atom_site_fract_z
 _atom_site_occupancy
  Ti  Ti0  1  0.06021975  0.17182998  0.83396399  1
  Ti  Ti1  1  0.56493006  0.82640326  0.16677310  1
  Ti  Ti2  1  0.56304610  0.33616004  0.00209003  1
  Ti  Ti3  1  0.06284716  0.15749919  0.16662051  1
  Ti  Ti4  1  0.06568410  0.66548927  0.33709152  1
  Ti  Ti5  1  0.06078262  0.16965604  0.49933821  1
  Ti  Ti6  1  0.06208289  0.66219245  0.66705163  1
  Ti  Ti7  1  0.06574796  0.66660173  0.99595604  1
  Ti  Ti8  1  0.56325716  0.33482422  0.33123756  1
  Ti  Ti9  1  0.56342314  0.83681478  0.50241013  1
  Ti  Ti10  1  0.56319042  0.83884226  0.83074896  1
  V  V11  1  0.55520410  0.33298148  0.66633132  1
  N  N12  1  0.56294526  0.15792569  0.16641086  1
  N  N13  1  0.56598390  0.66707553  0.33836467  1
  N  N14  1  0.56037552  0.17226092  0.50105141  1
  N  N15  1  0.56084294  0.65875778  0.66700430  1
  N  N16  1  0.56011492  0.17454377  0.83239438  1
  N  N17  1  0.56607411  0.66878258  0.99472668  1
  N  N18  1  0.06519844  0.82226205  0.16684330  1
  N  N19  1  0.06274641  0.33327758  0.33062225  1
  N  N20  1  0.06452046  0.83887487  0.50402722  1
  N  N21  1  0.05316402  0.32994387  0.66618413  1
  N  N22  1  0.06440986  0.84128281  0.82922855  1
  N  N23  1  0.06268513  0.33479047  0.00297250  1
