# generated using pymatgen
data_Ti11ReN12
_symmetry_space_group_name_H-M   'P 1'
_cell_length_a   4.24752139
_cell_length_b   6.08676571
_cell_length_c   10.34618336
_cell_angle_alpha   90.32292698
_cell_angle_beta   89.86877062
_cell_angle_gamma   89.68914200
_symmetry_Int_Tables_number   1
_chemical_formula_structural   Ti11ReN12
_chemical_formula_sum   'Ti11 Re1 N12'
_cell_volume   267.47787934
_cell_formula_units_Z   1
loop_
 _symmetry_equiv_pos_site_id
 _symmetry_equiv_pos_as_xyz
  1  'x, y, z'
loop_
 _atom_site_type_symbol
 _atom_site_label
 _atom_site_symmetry_multiplicity
 _atom_site_fract_x
 _atom_site_fract_y
 _atom_site_fract_z
 _atom_site_occupancy
  Ti  Ti0  1  0.06211700  0.14327591  0.82428822  1
  Ti  Ti1  1  0.56557893  0.85773270  0.16572367  1
  Ti  Ti2  1  0.56305986  0.32376916  0.98581206  1
  Ti  Ti3  1  1.06155970  0.18680985  0.16525648  1
  Ti  Ti4  1  1.06304205  0.66046012  0.32372847  1
  Ti  Ti5  1  0.05531722  0.17086867  0.51527771  1
  Ti  Ti6  1  0.06498108  0.67866396  0.65994631  1
  Ti  Ti7  1  1.06683130  0.65479979  0.00929303  1
  Ti  Ti8  1  0.55875559  0.32817339  0.34310997  1
  Ti  Ti9  1  0.56033702  0.83408555  0.48552993  1
  Ti  Ti10  1  0.56476051  0.80034463  0.84145707  1
  Re  Re11  1  0.56321126  0.36653477  0.68575390  1
  N  N12  1  0.56059126  0.19465590  0.16530127  1
  N  N13  1  0.56262402  0.65625543  0.31963249  1
  N  N14  1  0.55814893  0.15993233  0.51383734  1
  N  N15  1  0.56621413  0.69044915  0.65685457  1
  N  N16  1  0.56191693  0.12766300  0.82296686  1
  N  N17  1  0.56609810  0.65169146  1.01530952  1
  N  N18  1  0.06545735  0.86132288  0.16660211  1
  N  N19  1  0.05818624  0.32827586  0.34531319  1
  N  N20  1  0.06072385  0.83671117  0.48559223  1
  N  N21  1  0.06279941  0.35521938  0.67651841  1
  N  N22  1  0.06364091  0.80655118  0.84033123  1
  N  N23  1  0.06256647  0.32370765  -0.01321256  1
