# generated using pymatgen
data_Ti11MoN12
_symmetry_space_group_name_H-M   'P 1'
_cell_length_a   4.26032327
_cell_length_b   6.18428063
_cell_length_c   10.22177872
_cell_angle_alpha   89.81405528
_cell_angle_beta   90.05081758
_cell_angle_gamma   88.62560173
_symmetry_Int_Tables_number   1
_chemical_formula_structural   Ti11MoN12
_chemical_formula_sum   'Ti11 Mo1 N12'
_cell_volume   269.23453554
_cell_formula_units_Z   1
loop_
 _symmetry_equiv_pos_site_id
 _symmetry_equiv_pos_as_xyz
  1  'x, y, z'
loop_
 _atom_site_type_symbol
 _atom_site_label
 _atom_site_symmetry_multiplicity
 _atom_site_fract_x
 _atom_site_fract_y
 _atom_site_fract_z
 _atom_site_occupancy
  Ti  Ti0  1  0.05989723  0.15554658  0.82960472  1
  Ti  Ti1  1  0.56198409  0.85051546  0.16895278  1
  Ti  Ti2  1  0.56508609  0.33735833  0.99218990  1
  Ti  Ti3  1  0.06651092  0.17732789  0.16356448  1
  Ti  Ti4  1  1.06262199  0.66133306  0.33120105  1
  Ti  Ti5  1  0.05967703  0.16063384  0.50248181  1
  Ti  Ti6  1  1.05688033  0.66052997  0.66675096  1
  Ti  Ti7  1  1.06345155  0.66515415  0.00748327  1
  Ti  Ti8  1  0.56594222  0.33457078  0.33600972  1
  Ti  Ti9  1  0.55962614  0.82967446  0.49497585  1
  Ti  Ti10  1  0.55860604  0.82417808  0.83965173  1
  Mo  Mo11  1  0.56567372  0.34943151  0.66617175  1
  N  N12  1  0.56774397  0.18025354  0.16324433  1
  N  N13  1  0.56261666  0.65990009  0.32897235  1
  N  N14  1  0.56061589  0.15103047  0.50073734  1
  N  N15  1  0.55741029  0.67758362  0.66668065  1
  N  N16  1  0.56094131  0.14521519  0.83116405  1
  N  N17  1  0.56359918  0.66317171  1.01009390  1
  N  N18  1  0.06333496  0.85311363  0.17016056  1
  N  N19  1  0.06671312  0.33465674  0.33622563  1
  N  N20  1  0.05914714  0.83052192  0.49830028  1
  N  N21  1  0.06557383  0.33441311  0.66714952  1
  N  N22  1  0.05824499  0.82339708  0.83657825  1
  N  N23  1  0.06516713  0.34033528  -0.00881422  1
