# generated using pymatgen
data_TaTi11N12
_symmetry_space_group_name_H-M   'P 1'
_cell_length_a   4.25054778
_cell_length_b   6.05457272
_cell_length_c   10.46567697
_cell_angle_alpha   90.00163305
_cell_angle_beta   89.99915365
_cell_angle_gamma   90.00280351
_symmetry_Int_Tables_number   1
_chemical_formula_structural   TaTi11N12
_chemical_formula_sum   'Ta1 Ti11 N12'
_cell_volume   269.33681958
_cell_formula_units_Z   1
loop_
 _symmetry_equiv_pos_site_id
 _symmetry_equiv_pos_as_xyz
  1  'x, y, z'
loop_
 _atom_site_type_symbol
 _atom_site_label
 _atom_site_symmetry_multiplicity
 _atom_site_fract_x
 _atom_site_fract_y
 _atom_site_fract_z
 _atom_site_occupancy
  Ta  Ta0  1  0.56183165  0.33164131  0.66660327  1
  Ti  Ti1  1  0.06224871  0.16408986  0.83564655  1
  Ti  Ti2  1  0.56240656  0.83405100  0.16663720  1
  Ti  Ti3  1  0.56237424  0.33495808  0.00020548  1
  Ti  Ti4  1  0.06249148  0.16770395  0.16664591  1
  Ti  Ti5  1  0.06252759  0.66632895  0.33319138  1
  Ti  Ti6  1  0.06212669  0.16400059  0.49775896  1
  Ti  Ti7  1  0.06269279  0.67012022  0.66658080  1
  Ti  Ti8  1  0.06250842  0.66639608  0.00013936  1
  Ti  Ti9  1  0.56264681  0.33505588  0.33327516  1
  Ti  Ti10  1  0.56255997  0.83282751  0.49995705  1
  Ti  Ti11  1  0.56245841  0.83303283  0.83359408  1
  N  N12  1  0.56253423  0.16629133  0.16672756  1
  N  N13  1  0.56272125  0.66729242  0.33252901  1
  N  N14  1  0.56274440  0.16548226  0.49793096  1
  N  N15  1  0.56261747  0.66701080  0.66683328  1
  N  N16  1  0.56308748  0.16565751  0.83527347  1
  N  N17  1  0.56225065  0.66711742  0.00073120  1
  N  N18  1  0.06257079  0.83493704  0.16670840  1
  N  N19  1  0.06250399  0.33587391  0.33209029  1
  N  N20  1  0.06227878  0.83139106  0.49885509  1
  N  N21  1  0.06289910  0.33330724  0.66681664  1
  N  N22  1  0.06252755  0.83178647  0.83460314  1
  N  N23  1  0.06260224  0.33578290  0.00132052  1
