# generated using pymatgen
data_Ti11WN12
_symmetry_space_group_name_H-M   'P 1'
_cell_length_a   4.25994426
_cell_length_b   6.03082028
_cell_length_c   10.48313146
_cell_angle_alpha   90.00216597
_cell_angle_beta   89.99979526
_cell_angle_gamma   89.99833517
_symmetry_Int_Tables_number   1
_chemical_formula_structural   Ti11WN12
_chemical_formula_sum   'Ti11 W1 N12'
_cell_volume   269.32169201
_cell_formula_units_Z   1
loop_
 _symmetry_equiv_pos_site_id
 _symmetry_equiv_pos_as_xyz
  1  'x, y, z'
loop_
 _atom_site_type_symbol
 _atom_site_label
 _atom_site_symmetry_multiplicity
 _atom_site_fract_x
 _atom_site_fract_y
 _atom_site_fract_z
 _atom_site_occupancy
  Ti  Ti0  1  0.06276147  0.16448981  0.83524299  1
  Ti  Ti1  1  0.56261008  0.83962692  0.16674962  1
  Ti  Ti2  1  0.56251487  0.33700245  1.00025593  1
  Ti  Ti3  1  0.06232447  0.17122323  0.16670121  1
  Ti  Ti4  1  0.06256307  0.66819193  0.33214365  1
  Ti  Ti5  1  0.06255027  0.16442244  0.49808950  1
  Ti  Ti6  1  0.06284765  0.66485727  0.66668332  1
  Ti  Ti7  1  0.06246576  0.66806704  0.00114353  1
  Ti  Ti8  1  0.56264448  0.33693750  0.33313108  1
  Ti  Ti9  1  0.56248938  0.82804564  0.49969235  1
  Ti  Ti10  1  0.56241387  0.82806438  0.83367078  1
  W  W11  1  0.56200610  0.32664893  0.66671300  1
  N  N12  1  0.56251429  0.17371268  0.16666908  1
  N  N13  1  0.56259631  0.67016009  0.33261063  1
  N  N14  1  0.56257449  0.16227175  0.49790996  1
  N  N15  1  0.56265875  0.66351562  0.66664942  1
  N  N16  1  0.56258210  0.16225399  0.83534458  1
  N  N17  1  0.56244618  0.67026971  0.00080217  1
  N  N18  1  0.06262576  0.83722051  0.16658654  1
  N  N19  1  0.06260295  0.33623609  0.33362646  1
  N  N20  1  0.06241457  0.83027454  0.49990322  1
  N  N21  1  0.06239875  0.32895900  0.66662839  1
  N  N22  1  0.06272072  0.83037143  0.83349999  1
  N  N23  1  0.06251903  0.33611787  0.99981232  1
