# generated using pymatgen
data_Ti11NbN12
_symmetry_space_group_name_H-M   'P 1'
_cell_length_a   4.23479968
_cell_length_b   6.09715237
_cell_length_c   10.50478112
_cell_angle_alpha   90.00281757
_cell_angle_beta   90.00046897
_cell_angle_gamma   89.99937829
_symmetry_Int_Tables_number   1
_chemical_formula_structural   Ti11NbN12
_chemical_formula_sum   'Ti11 Nb1 N12'
_cell_volume   271.23574813
_cell_formula_units_Z   1
loop_
 _symmetry_equiv_pos_site_id
 _symmetry_equiv_pos_as_xyz
  1  'x, y, z'
loop_
 _atom_site_type_symbol
 _atom_site_label
 _atom_site_symmetry_multiplicity
 _atom_site_fract_x
 _atom_site_fract_y
 _atom_site_fract_z
 _atom_site_occupancy
  Ti  Ti0  1  0.06263174  0.16407653  0.83536149  1
  Ti  Ti1  1  0.56249429  0.83758542  0.16662927  1
  Ti  Ti2  1  0.56241282  0.33617577  1.00063804  1
  Ti  Ti3  1  0.06245612  0.16932389  0.16656922  1
  Ti  Ti4  1  0.06239186  0.66747192  0.33184884  1
  Ti  Ti5  1  0.06229600  0.16443415  0.49810289  1
  Ti  Ti6  1  0.06258163  0.66416633  0.66650363  1
  Ti  Ti7  1  0.06238519  0.66750714  0.00141785  1
  Ti  Ti8  1  0.56241817  0.33632263  0.33258432  1
  Ti  Ti9  1  0.56234525  0.83173003  0.49907923  1
  Ti  Ti10  1  0.56233615  0.83103398  0.83391626  1
  Nb  Nb11  1  0.56207180  0.32891088  0.66686851  1
  N  N12  1  0.56247234  0.16743247  0.16661741  1
  N  N13  1  0.56248032  0.66741845  0.33122211  1
  N  N14  1  0.56249666  0.15972964  0.49230451  1
  N  N15  1  0.56239675  0.67624210  0.66631381  1
  N  N16  1  0.56217629  0.15869928  0.84149470  1
  N  N17  1  0.56241013  0.66776695  0.00221651  1
  N  N18  1  0.06254487  0.83792455  0.16664961  1
  N  N19  1  0.06238761  0.33689541  0.33175265  1
  N  N20  1  0.06237327  0.83070124  0.49847618  1
  N  N21  1  0.06289915  0.32980805  0.66679929  1
  N  N22  1  0.06246488  0.83013956  0.83465073  1
  N  N23  1  0.06254734  0.33689801  0.00158273  1
