# generated using pymatgen
data_NbAl31N32
_symmetry_space_group_name_H-M   'P 1'
_cell_length_a   16.63218894
_cell_length_b   8.31216597
_cell_length_c   5.02365807
_cell_angle_alpha   90.00122767
_cell_angle_beta   89.99780893
_cell_angle_gamma   98.19509768
_symmetry_Int_Tables_number   1
_chemical_formula_structural   NbAl31N32
_chemical_formula_sum   'Nb1 Al31 N32'
_cell_volume   687.42616976
_cell_formula_units_Z   1
loop_
 _symmetry_equiv_pos_site_id
 _symmetry_equiv_pos_as_xyz
  1  'x, y, z'
loop_
 _atom_site_type_symbol
 _atom_site_label
 _atom_site_symmetry_multiplicity
 _atom_site_fract_x
 _atom_site_fract_y
 _atom_site_fract_z
 _atom_site_occupancy
  Nb  Nb0  1  0.54182805  0.58335244  0.01181493  1
  Al  Al1  1  0.16377078  0.33251851  0.00182882  1
  Al  Al2  1  0.28887539  0.08274470  0.00297035  1
  Al  Al3  1  0.47797061  0.19982462  0.00236598  1
  Al  Al4  1  0.10412702  0.95827395  0.00147451  1
  Al  Al5  1  0.41155743  0.83505180  0.00225864  1
  Al  Al6  1  0.45396435  0.40938961  0.50665624  1
  Al  Al7  1  0.39293645  0.04075300  0.50293437  1
  Al  Al8  1  0.02191769  0.79256298  0.50127032  1
  Al  Al9  1  0.22712660  0.70800020  0.00197174  1
  Al  Al10  1  0.34763714  0.45591766  0.00172598  1
  Al  Al11  1  0.04199721  0.58351037  0.00146577  1
  Al  Al12  1  0.33184392  0.66505464  0.50304558  1
  Al  Al13  1  0.14522417  0.54246614  0.50168641  1
  Al  Al14  1  0.26717917  0.28885979  0.50227332  1
  Al  Al15  1  0.08232949  0.16669780  0.50166621  1
  Al  Al16  1  0.20745872  0.91548018  0.50244003  1
  Al  Al17  1  0.67063410  0.32860974  0.00201772  1
  Al  Al18  1  0.79396872  0.08348643  0.00265003  1
  Al  Al19  1  0.97902532  0.20781975  0.00195007  1
  Al  Al20  1  0.60713925  0.96706728  0.00208745  1
  Al  Al21  1  0.91916082  0.83377211  0.00185652  1
  Al  Al22  1  0.95925126  0.41719060  0.50193616  1
  Al  Al23  1  0.89669646  0.04094968  0.50232759  1
  Al  Al24  1  0.51987473  0.80046457  0.50761456  1
  Al  Al25  1  0.73531977  0.71602887  0.00159605  1
  Al  Al26  1  0.85613685  0.45823994  0.00288255  1
  Al  Al27  1  0.83666531  0.66718964  0.50218758  1
  Al  Al28  1  0.65141818  0.54123467  0.50635589  1
  Al  Al29  1  0.77386022  0.28990043  0.50325200  1
  Al  Al30  1  0.58363092  0.17066950  0.50420224  1
  Al  Al31  1  0.70902330  0.91789742  0.50413827  1
  N  N32  1  0.22942407  0.70799955  0.62271807  1
  N  N33  1  0.35274984  0.45630834  0.62258975  1
  N  N34  1  0.04186804  0.58433099  0.62188226  1
  N  N35  1  0.16529492  0.33406213  0.62253835  1
  N  N36  1  0.29076283  0.08323073  0.62373712  1
  N  N37  1  0.47863147  0.20586041  0.62355084  1
  N  N38  1  0.10460423  0.95935931  0.62188077  1
  N  N39  1  0.41595127  0.83270666  0.62327560  1
  N  N40  1  0.33265541  0.66546888  0.12324368  1
  N  N41  1  0.45192107  0.40589640  0.12354435  1
  N  N42  1  0.14570295  0.54152528  0.12243136  1
  N  N43  1  0.26794909  0.28979163  0.12335634  1
  N  N44  1  0.39390528  0.04126280  0.12444821  1
  N  N45  1  0.08237569  0.16540047  0.12213194  1
  N  N46  1  0.20811304  0.91553251  0.12300605  1
  N  N47  1  0.02204394  0.79160527  0.12212988  1
  N  N48  1  0.73058827  0.71026356  0.62274521  1
  N  N49  1  0.85454962  0.45821022  0.62311702  1
  N  N50  1  0.54183183  0.58272649  0.58575172  1
  N  N51  1  0.66792072  0.33289111  0.62357456  1
  N  N52  1  0.79165988  0.08144292  0.62373381  1
  N  N53  1  0.97848456  0.20855922  0.62213684  1
  N  N54  1  0.60397887  0.96170995  0.62351999  1
  N  N55  1  0.91778666  0.83374687  0.62272467  1
  N  N56  1  0.83551296  0.66731647  0.12286109  1
  N  N57  1  0.95902925  0.41650383  0.12228273  1
  N  N58  1  0.65386478  0.54098307  0.12385867  1
  N  N59  1  0.77259953  0.28999320  0.12411215  1
  N  N60  1  0.89612228  0.04011705  0.12287005  1
  N  N61  1  0.58356790  0.17148009  0.12447794  1
  N  N62  1  0.70818379  0.91819253  0.12404300  1
  N  N63  1  0.51946650  0.80694987  0.12471284  1
