# generated using pymatgen
data_Ti11MnN12
_symmetry_space_group_name_H-M   'P 1'
_cell_length_a   4.21412300
_cell_length_b   6.05765091
_cell_length_c   10.51054557
_cell_angle_alpha   89.99525271
_cell_angle_beta   89.99915517
_cell_angle_gamma   89.99968590
_symmetry_Int_Tables_number   1
_chemical_formula_structural   Ti11MnN12
_chemical_formula_sum   'Ti11 Mn1 N12'
_cell_volume   268.30990633
_cell_formula_units_Z   1
loop_
 _symmetry_equiv_pos_site_id
 _symmetry_equiv_pos_as_xyz
  1  'x, y, z'
loop_
 _atom_site_type_symbol
 _atom_site_label
 _atom_site_symmetry_multiplicity
 _atom_site_fract_x
 _atom_site_fract_y
 _atom_site_fract_z
 _atom_site_occupancy
  Ti  Ti0  1  0.06253369  0.16801058  0.83300763  1
  Ti  Ti1  1  0.56258207  0.83333458  0.16660480  1
  Ti  Ti2  1  0.56266553  0.33409209  1.00077352  1
  Ti  Ti3  1  0.06250611  0.16738461  0.16670548  1
  Ti  Ti4  1  0.06252510  0.66636852  0.33295928  1
  Ti  Ti5  1  0.06256745  0.16789152  0.50033383  1
  Ti  Ti6  1  0.06254684  0.66579241  0.66667876  1
  Ti  Ti7  1  0.06251679  0.66631277  0.00033605  1
  Ti  Ti8  1  0.56252914  0.33398917  0.33254174  1
  Ti  Ti9  1  0.56254820  0.83245911  0.49918428  1
  Ti  Ti10  1  0.56243768  0.83254773  0.83398726  1
  Mn  Mn11  1  0.56249046  0.33083337  0.66662194  1
  N  N12  1  0.56257925  0.16906188  0.16672741  1
  N  N13  1  0.56261521  0.66743146  0.33411920  1
  N  N14  1  0.56249276  0.16150620  0.49570252  1
  N  N15  1  0.56253118  0.67524479  0.66669769  1
  N  N16  1  0.56251704  0.16160258  0.83771245  1
  N  N17  1  0.56250286  0.66741009  -0.00082702  1
  N  N18  1  0.06253376  0.83382213  0.16663581  1
  N  N19  1  0.06254207  0.33340677  0.33445956  1
  N  N20  1  0.06253545  0.83257603  0.50087815  1
  N  N21  1  0.06257675  0.33193983  0.66662834  1
  N  N22  1  0.06258194  0.83277246  0.83246782  1
  N  N23  1  0.06249788  0.33339681  0.99890799  1
