# generated using pymatgen
data_ZrAl31N32
_symmetry_space_group_name_H-M   'P 1'
_cell_length_a   16.64005380
_cell_length_b   8.31521485
_cell_length_c   5.02365352
_cell_angle_alpha   89.99209820
_cell_angle_beta   90.00112408
_cell_angle_gamma   98.20088693
_symmetry_Int_Tables_number   1
_chemical_formula_structural   ZrAl31N32
_chemical_formula_sum   'Zr1 Al31 N32'
_cell_volume   687.99285428
_cell_formula_units_Z   1
loop_
 _symmetry_equiv_pos_site_id
 _symmetry_equiv_pos_as_xyz
  1  'x, y, z'
loop_
 _atom_site_type_symbol
 _atom_site_label
 _atom_site_symmetry_multiplicity
 _atom_site_fract_x
 _atom_site_fract_y
 _atom_site_fract_z
 _atom_site_occupancy
  Zr  Zr0  1  0.54192584  0.58422303  0.00749169  1
  Al  Al1  1  0.16420632  0.33227739  0.00197429  1
  Al  Al2  1  0.28835954  0.08280695  0.00413459  1
  Al  Al3  1  0.47696610  0.19959339  0.00344574  1
  Al  Al4  1  0.10343930  0.95736330  0.00193059  1
  Al  Al5  1  0.41155198  0.83678708  0.00176824  1
  Al  Al6  1  0.45345870  0.40923834  0.50032570  1
  Al  Al7  1  0.39306707  0.04151938  0.50397733  1
  Al  Al8  1  0.02088798  0.79079752  0.50166081  1
  Al  Al9  1  0.22684615  0.70776019  0.00282097  1
  Al  Al10  1  0.34762870  0.45517698  0.00111564  1
  Al  Al11  1  0.04181287  0.58299513  0.00177623  1
  Al  Al12  1  0.33128556  0.66665170  0.50312647  1
  Al  Al13  1  0.14510841  0.54064144  0.50225402  1
  Al  Al14  1  0.26835096  0.28977526  0.50290091  1
  Al  Al15  1  0.08320834  0.16561244  0.50172360  1
  Al  Al16  1  0.20688197  0.91552107  0.50321290  1
  Al  Al17  1  0.67156554  0.32908660  0.00258435  1
  Al  Al18  1  0.79454217  0.08278183  0.00429268  1
  Al  Al19  1  0.97985293  0.20816541  0.00222338  1
  Al  Al20  1  0.60699696  0.96772851  0.00342285  1
  Al  Al21  1  0.91897160  0.83430815  0.00237861  1
  Al  Al22  1  0.95926805  0.41626897  0.50248894  1
  Al  Al23  1  0.89724612  0.04187222  0.50299801  1
  Al  Al24  1  0.51948315  0.80335885  0.50052653  1
  Al  Al25  1  0.73559193  0.71282834  0.00193309  1
  Al  Al26  1  0.85634764  0.45808373  0.00383359  1
  Al  Al27  1  0.83595700  0.66698742  0.50292851  1
  Al  Al28  1  0.65184452  0.54055466  0.50018862  1
  Al  Al29  1  0.77341876  0.29069944  0.50405562  1
  Al  Al30  1  0.58391048  0.16926900  0.50476275  1
  Al  Al31  1  0.71001322  0.91806150  0.50450640  1
  N  N32  1  0.22833630  0.70775434  0.62358558  1
  N  N33  1  0.35219040  0.45794075  0.62274528  1
  N  N34  1  0.04167376  0.58303944  0.62262334  1
  N  N35  1  0.16575499  0.33282173  0.62316794  1
  N  N36  1  0.29018340  0.08307107  0.62478130  1
  N  N37  1  0.47842084  0.20625671  0.62469130  1
  N  N38  1  0.10356656  0.95757538  0.62255691  1
  N  N39  1  0.41512561  0.83401780  0.62361116  1
  N  N40  1  0.33167509  0.66572699  0.12334435  1
  N  N41  1  0.44929915  0.40179314  0.12315340  1
  N  N42  1  0.14533660  0.54076922  0.12318266  1
  N  N43  1  0.26743250  0.28978499  0.12436861  1
  N  N44  1  0.39235395  0.04122586  0.12581031  1
  N  N45  1  0.08294099  0.16512250  0.12272544  1
  N  N46  1  0.20710273  0.91517392  0.12387016  1
  N  N47  1  0.02143425  0.79070922  0.12296052  1
  N  N48  1  0.73105511  0.70971858  0.62330142  1
  N  N49  1  0.85493750  0.45838165  0.62415363  1
  N  N50  1  0.54173270  0.58423609  0.57262661  1
  N  N51  1  0.66831442  0.33264168  0.62426855  1
  N  N52  1  0.79273310  0.08265254  0.62500602  1
  N  N53  1  0.97962245  0.20832559  0.62277038  1
  N  N54  1  0.60506852  0.96129504  0.62475130  1
  N  N55  1  0.91739040  0.83390273  0.62339805  1
  N  N56  1  0.83669200  0.66734736  0.12413805  1
  N  N57  1  0.95939832  0.41602356  0.12329790  1
  N  N58  1  0.65704370  0.53946862  0.12333833  1
  N  N59  1  0.77370454  0.28918942  0.12517906  1
  N  N60  1  0.89722296  0.04110882  0.12402187  1
  N  N61  1  0.58410949  0.17215604  0.12521127  1
  N  N62  1  0.70939577  0.91742900  0.12454023  1
  N  N63  1  0.51839101  0.81394292  0.12339104  1
