# generated using pymatgen
data_ZrTi11N12
_symmetry_space_group_name_H-M   'P 1'
_cell_length_a   4.26762586
_cell_length_b   6.12936237
_cell_length_c   10.49056290
_cell_angle_alpha   89.99342360
_cell_angle_beta   90.00040528
_cell_angle_gamma   89.99692260
_symmetry_Int_Tables_number   1
_chemical_formula_structural   ZrTi11N12
_chemical_formula_sum   'Zr1 Ti11 N12'
_cell_volume   274.41030972
_cell_formula_units_Z   1
loop_
 _symmetry_equiv_pos_site_id
 _symmetry_equiv_pos_as_xyz
  1  'x, y, z'
loop_
 _atom_site_type_symbol
 _atom_site_label
 _atom_site_symmetry_multiplicity
 _atom_site_fract_x
 _atom_site_fract_y
 _atom_site_fract_z
 _atom_site_occupancy
  Zr  Zr0  1  0.56244538  0.33776969  0.66662863  1
  Ti  Ti1  1  0.06251887  0.16200701  0.84184187  1
  Ti  Ti2  1  0.56225448  0.83212689  0.16664377  1
  Ti  Ti3  1  0.56196907  0.33337633  0.00591399  1
  Ti  Ti4  1  0.06264479  0.16060335  0.16670195  1
  Ti  Ti5  1  0.06252767  0.66269347  0.33093978  1
  Ti  Ti6  1  0.06219780  0.16214852  0.49137709  1
  Ti  Ti7  1  0.06238785  0.68698361  0.66661677  1
  Ti  Ti8  1  0.06259979  0.66288084  0.00241214  1
  Ti  Ti9  1  0.56243402  0.33353359  0.32720787  1
  Ti  Ti10  1  0.56309188  0.83417980  0.49296636  1
  Ti  Ti11  1  0.56167572  0.83408763  0.84026364  1
  N  N12  1  0.56225376  0.15960188  0.16666553  1
  N  N13  1  0.56235626  0.66250691  0.33033150  1
  N  N14  1  0.56250433  0.15935439  0.48931663  1
  N  N15  1  0.56238978  0.69135283  0.66672779  1
  N  N16  1  0.56223317  0.15930526  0.84397368  1
  N  N17  1  0.56223247  0.66279329  0.00301613  1
  N  N18  1  0.06256498  0.83188906  0.16662595  1
  N  N19  1  0.06242888  0.33253025  0.32908974  1
  N  N20  1  0.06183291  0.83432609  0.49484563  1
  N  N21  1  0.06240839  0.33857891  0.66661334  1
  N  N22  1  0.06300527  0.83403225  0.83848785  1
  N  N23  1  0.06282943  0.33255008  0.00417419  1
