# generated using pymatgen
data_Al31FeN32
_symmetry_space_group_name_H-M   'P 1'
_cell_length_a   16.54984281
_cell_length_b   8.27441932
_cell_length_c   5.02662831
_cell_angle_alpha   90.00024118
_cell_angle_beta   89.99854193
_cell_angle_gamma   98.21391400
_symmetry_Int_Tables_number   1
_chemical_formula_structural   Al31FeN32
_chemical_formula_sum   'Al31 Fe1 N32'
_cell_volume   681.28681005
_cell_formula_units_Z   1
loop_
 _symmetry_equiv_pos_site_id
 _symmetry_equiv_pos_as_xyz
  1  'x, y, z'
loop_
 _atom_site_type_symbol
 _atom_site_label
 _atom_site_symmetry_multiplicity
 _atom_site_fract_x
 _atom_site_fract_y
 _atom_site_fract_z
 _atom_site_occupancy
  Al  Al0  1  0.16600716  0.33318556  0.00171553  1
  Al  Al1  1  0.29062132  0.08287392  0.00189099  1
  Al  Al2  1  0.47902107  0.20621964  0.00236391  1
  Al  Al3  1  0.10368145  0.95831122  0.00140632  1
  Al  Al4  1  0.41514182  0.83339891  0.00182923  1
  Al  Al5  1  0.45712025  0.41560197  0.50530583  1
  Al  Al6  1  0.39456635  0.04148278  0.50156537  1
  Al  Al7  1  0.02094784  0.79149541  0.50167784  1
  Al  Al8  1  0.22819518  0.70829087  0.00178167  1
  Al  Al9  1  0.35234389  0.45815420  0.00142348  1
  Al  Al10  1  0.04175481  0.58361538  0.00193207  1
  Al  Al11  1  0.33242682  0.66599489  0.50148309  1
  Al  Al12  1  0.14548667  0.54127855  0.50191215  1
  Al  Al13  1  0.26941715  0.29017258  0.50157275  1
  Al  Al14  1  0.08304270  0.16619153  0.50166614  1
  Al  Al15  1  0.20741675  0.91568518  0.50172832  1
  Al  Al16  1  0.66752503  0.33146651  0.00159564  1
  Al  Al17  1  0.79284416  0.08398131  0.00164763  1
  Al  Al18  1  0.97952468  0.20851603  0.00164591  1
  Al  Al19  1  0.60537174  0.95935393  0.00197171  1
  Al  Al20  1  0.91712861  0.83362111  0.00178287  1
  Al  Al21  1  0.95903740  0.41656858  0.50174509  1
  Al  Al22  1  0.89657025  0.04163236  0.50164221  1
  Al  Al23  1  0.52056306  0.79411294  0.50538818  1
  Al  Al24  1  0.73068824  0.71000331  0.00177400  1
  Al  Al25  1  0.85498521  0.45851835  0.00208614  1
  Al  Al26  1  0.83461726  0.66660768  0.50188378  1
  Al  Al27  1  0.64734046  0.54212437  0.50531663  1
  Al  Al28  1  0.77217085  0.29170985  0.50165691  1
  Al  Al29  1  0.58341363  0.16808693  0.50209704  1
  Al  Al30  1  0.70917222  0.91754465  0.50192433  1
  Fe  Fe31  1  0.54172560  0.58335458  0.00334351  1
  N  N32  1  0.22876011  0.70802367  0.62281288  1
  N  N33  1  0.35315296  0.45760742  0.62192958  1
  N  N34  1  0.04178974  0.58355000  0.62313077  1
  N  N35  1  0.16603602  0.33308399  0.62296819  1
  N  N36  1  0.29072690  0.08255861  0.62271846  1
  N  N37  1  0.47885684  0.20747576  0.62245239  1
  N  N38  1  0.10380563  0.95820614  0.62282061  1
  N  N39  1  0.41593213  0.83313020  0.62217178  1
  N  N40  1  0.33260973  0.66642057  0.12266180  1
  N  N41  1  0.45583844  0.41304938  0.12419349  1
  N  N42  1  0.14570808  0.54142427  0.12307523  1
  N  N43  1  0.26997469  0.29096330  0.12275430  1
  N  N44  1  0.39497591  0.04162187  0.12288568  1
  N  N45  1  0.08324700  0.16635342  0.12291533  1
  N  N46  1  0.20773631  0.91611854  0.12281427  1
  N  N47  1  0.02084572  0.79147288  0.12307241  1
  N  N48  1  0.73008357  0.70927796  0.62228484  1
  N  N49  1  0.85486705  0.45846054  0.62297049  1
  N  N50  1  0.54190321  0.58346768  0.61845659  1
  N  N51  1  0.66737891  0.33296608  0.62223570  1
  N  N52  1  0.79236581  0.08363055  0.62276618  1
  N  N53  1  0.97931707  0.20838193  0.62301217  1
  N  N54  1  0.60471793  0.95940047  0.62227457  1
  N  N55  1  0.91701948  0.83348456  0.62287143  1
  N  N56  1  0.83405391  0.66670014  0.12305528  1
  N  N57  1  0.95877007  0.41660078  0.12293974  1
  N  N58  1  0.64873011  0.54092343  0.12405905  1
  N  N59  1  0.77162197  0.29140893  0.12273533  1
  N  N60  1  0.89634769  0.04167381  0.12288846  1
  N  N61  1  0.58352290  0.16709841  0.12295591  1
  N  N62  1  0.70901652  0.91743139  0.12302309  1
  N  N63  1  0.52011536  0.79722239  0.12421061  1
