# generated using pymatgen
data_Al31MoN32
_symmetry_space_group_name_H-M   'P 1'
_cell_length_a   16.62187766
_cell_length_b   8.30813633
_cell_length_c   5.03778858
_cell_angle_alpha   89.99892944
_cell_angle_beta   89.99688852
_cell_angle_gamma   98.20043058
_symmetry_Int_Tables_number   1
_chemical_formula_structural   Al31MoN32
_chemical_formula_sum   'Al31 Mo1 N32'
_cell_volume   688.58916098
_cell_formula_units_Z   1
loop_
 _symmetry_equiv_pos_site_id
 _symmetry_equiv_pos_as_xyz
  1  'x, y, z'
loop_
 _atom_site_type_symbol
 _atom_site_label
 _atom_site_symmetry_multiplicity
 _atom_site_fract_x
 _atom_site_fract_y
 _atom_site_fract_z
 _atom_site_occupancy
  Al  Al0  1  0.16479653  0.33341880  0.00004272  1
  Al  Al1  1  0.28901156  0.08365527  0.00177765  1
  Al  Al2  1  0.47844489  0.19797336  0.00239673  1
  Al  Al3  1  0.10328038  0.95875312  -0.00047803  1
  Al  Al4  1  0.41105864  0.83457737  1.00044837  1
  Al  Al5  1  0.45423178  0.40980217  0.50951572  1
  Al  Al6  1  0.39322874  0.04081238  0.50354662  1
  Al  Al7  1  0.02117467  0.79129729  0.49959223  1
  Al  Al8  1  0.22609018  0.70888604  0.00083542  1
  Al  Al9  1  0.34802775  0.45786931  0.00004060  1
  Al  Al10  1  0.04102506  0.58321352  -0.00065876  1
  Al  Al11  1  0.33063424  0.66692380  0.50195588  1
  Al  Al12  1  0.14440140  0.54095162  0.49997426  1
  Al  Al13  1  0.26844594  0.29097774  0.50130918  1
  Al  Al14  1  0.08317352  0.16632998  0.49950948  1
  Al  Al15  1  0.20683957  0.91726006  0.50074238  1
  Al  Al16  1  0.67021040  0.32669283  0.00120540  1
  Al  Al17  1  0.79513586  0.08492117  0.00251172  1
  Al  Al18  1  0.98014309  0.20922157  -0.00047504  1
  Al  Al19  1  0.60830621  0.96292782  0.00216960  1
  Al  Al20  1  0.91875844  0.83481615  0.00029135  1
  Al  Al21  1  0.95873937  0.41641066  0.50001466  1
  Al  Al22  1  0.89778927  0.04257013  0.50080245  1
  Al  Al23  1  0.51949523  0.79951147  0.50871755  1
  Al  Al24  1  0.73520630  0.71368860  0.00007882  1
  Al  Al25  1  0.85614517  0.45940852  0.00102009  1
  Al  Al26  1  0.83612447  0.66774654  0.50129287  1
  Al  Al27  1  0.65074735  0.54072088  0.50900545  1
  Al  Al28  1  0.77334344  0.29157774  0.50257679  1
  Al  Al29  1  0.58431544  0.16665484  0.50561636  1
  Al  Al30  1  0.71116612  0.91816422  0.50362616  1
  Mo  Mo31  1  0.54166272  0.58134766  0.09047683  1
  N  N32  1  0.22750927  0.70885560  0.62219313  1
  N  N33  1  0.35249429  0.45892172  0.62350274  1
  N  N34  1  0.04101223  0.58297072  0.62090788  1
  N  N35  1  0.16585856  0.33345102  0.62179669  1
  N  N36  1  0.29059536  0.08415889  0.62341256  1
  N  N37  1  0.47929219  0.20484399  0.62551687  1
  N  N38  1  0.10358839  0.95846695  0.62125780  1
  N  N39  1  0.41503629  0.83334322  0.62419438  1
  N  N40  1  0.33150315  0.66613861  0.12325426  1
  N  N41  1  0.44939670  0.40099874  0.12478831  1
  N  N42  1  0.14465769  0.54134604  0.12143219  1
  N  N43  1  0.26836041  0.29109654  0.12305450  1
  N  N44  1  0.39330666  0.04069610  0.12508862  1
  N  N45  1  0.08315585  0.16668132  0.12119972  1
  N  N46  1  0.20721854  0.91712692  0.12209349  1
  N  N47  1  0.02129829  0.79143607  0.12113013  1
  N  N48  1  0.73101571  0.70973289  0.62401613  1
  N  N49  1  0.85454498  0.45916866  0.62276376  1
  N  N50  1  0.54174975  0.58271041  0.52879776  1
  N  N51  1  0.66764013  0.33151896  0.62525595  1
  N  N52  1  0.79327763  0.08433226  0.62402965  1
  N  N53  1  0.97974969  0.20913990  0.62137088  1
  N  N54  1  0.60574670  0.95843750  0.62575698  1
  N  N55  1  0.91745957  0.83427600  0.62202458  1
  N  N56  1  0.83612698  0.66799339  0.12305226  1
  N  N57  1  0.95859706  0.41639585  0.12164152  1
  N  N58  1  0.65617665  0.53915681  0.12503630  1
  N  N59  1  0.77298743  0.29078839  0.12426084  1
  N  N60  1  0.89746402  0.04213374  0.12246803  1
  N  N61  1  0.58422080  0.16816015  0.12608277  1
  N  N62  1  0.71017216  0.91696385  0.12458446  1
  N  N63  1  0.51782738  0.81101232  0.12485564  1
