# generated using pymatgen
data_Ti11FeN12
_symmetry_space_group_name_H-M   'P 1'
_cell_length_a   4.22063300
_cell_length_b   6.04673589
_cell_length_c   10.45331073
_cell_angle_alpha   89.99965543
_cell_angle_beta   89.99924947
_cell_angle_gamma   90.00749712
_symmetry_Int_Tables_number   1
_chemical_formula_structural   Ti11FeN12
_chemical_formula_sum   'Ti11 Fe1 N12'
_cell_volume   266.77949513
_cell_formula_units_Z   1
loop_
 _symmetry_equiv_pos_site_id
 _symmetry_equiv_pos_as_xyz
  1  'x, y, z'
loop_
 _atom_site_type_symbol
 _atom_site_label
 _atom_site_symmetry_multiplicity
 _atom_site_fract_x
 _atom_site_fract_y
 _atom_site_fract_z
 _atom_site_occupancy
  Ti  Ti0  1  0.06265959  0.16860616  0.83157060  1
  Ti  Ti1  1  0.56255396  0.83334842  0.16670279  1
  Ti  Ti2  1  0.56204030  0.33380718  0.99952575  1
  Ti  Ti3  1  0.06279882  0.16827146  0.16659187  1
  Ti  Ti4  1  0.06194282  0.66730548  0.33383354  1
  Ti  Ti5  1  0.06255649  0.16891500  0.50184289  1
  Ti  Ti6  1  0.06256549  0.66063728  0.66662270  1
  Ti  Ti7  1  0.06266285  0.66753303  -0.00064023  1
  Ti  Ti8  1  0.56246274  0.33396589  0.33380244  1
  Ti  Ti9  1  0.56251986  0.83321886  0.50144935  1
  Ti  Ti10  1  0.56132186  0.83306590  0.83190072  1
  Fe  Fe11  1  0.56379026  0.33044595  0.66680047  1
  N  N12  1  0.56223430  0.17049213  0.16668774  1
  N  N13  1  0.56289182  0.66884337  0.33515560  1
  N  N14  1  0.56225617  0.16395000  0.49846349  1
  N  N15  1  0.56252111  0.66417167  0.66660493  1
  N  N16  1  0.56192309  0.16371219  0.83489686  1
  N  N17  1  0.56199411  0.66891670  -0.00188711  1
  N  N18  1  0.06219692  0.83387176  0.16658189  1
  N  N19  1  0.06211011  0.33376484  0.33491923  1
  N  N20  1  0.06250044  0.83404487  0.50206772  1
  N  N21  1  0.06088795  0.33272686  0.66688392  1
  N  N22  1  0.06382037  0.83395578  0.83102415  1
  N  N23  1  0.06280105  0.33402580  0.99837784  1
