# generated using pymatgen
data_Al31ReN32
_symmetry_space_group_name_H-M   'P 1'
_cell_length_a   16.58030674
_cell_length_b   8.28722170
_cell_length_c   5.03484450
_cell_angle_alpha   89.99613607
_cell_angle_beta   89.99622215
_cell_angle_gamma   98.20576204
_symmetry_Int_Tables_number   1
_chemical_formula_structural   Al31ReN32
_chemical_formula_sum   'Al31 Re1 N32'
_cell_volume   684.72833738
_cell_formula_units_Z   1
loop_
 _symmetry_equiv_pos_site_id
 _symmetry_equiv_pos_as_xyz
  1  'x, y, z'
loop_
 _atom_site_type_symbol
 _atom_site_label
 _atom_site_symmetry_multiplicity
 _atom_site_fract_x
 _atom_site_fract_y
 _atom_site_fract_z
 _atom_site_occupancy
  Al  Al0  1  0.16473919  0.33391278  -0.00072433  1
  Al  Al1  1  0.28914872  0.08366908  0.00143469  1
  Al  Al2  1  0.47842360  0.20072920  1.00336470  1
  Al  Al3  1  0.10358957  0.95922078  -0.00090110  1
  Al  Al4  1  0.41180503  0.83358540  1.00100358  1
  Al  Al5  1  0.45429218  0.40882652  0.51047997  1
  Al  Al6  1  0.39328889  0.04057058  0.50404125  1
  Al  Al7  1  0.02155966  0.79181239  0.49891370  1
  Al  Al8  1  0.22676366  0.70848590  0.00038057  1
  Al  Al9  1  0.34899778  0.45715971  1.00034694  1
  Al  Al10  1  0.04106079  0.58368955  -0.00102816  1
  Al  Al11  1  0.33081480  0.66576003  0.50248185  1
  Al  Al12  1  0.14412797  0.54169098  0.49933390  1
  Al  Al13  1  0.26810711  0.29116470  0.50109332  1
  Al  Al14  1  0.08280362  0.16691400  0.49873072  1
  Al  Al15  1  0.20692563  0.91742610  0.50020168  1
  Al  Al16  1  0.66991689  0.32920261  1.00296804  1
  Al  Al17  1  0.79436984  0.08349393  0.00210815  1
  Al  Al18  1  0.97971858  0.20951761  -0.00090364  1
  Al  Al19  1  0.60714284  0.96194098  1.00349011  1
  Al  Al20  1  0.91891205  0.83523556  -0.00034718  1
  Al  Al21  1  0.95854492  0.41691343  0.49937603  1
  Al  Al22  1  0.89785908  0.04255445  0.50012521  1
  Al  Al23  1  0.51956985  0.79781969  0.50951777  1
  Al  Al24  1  0.73458893  0.71298665  1.00105975  1
  Al  Al25  1  0.85589523  0.45934578  0.00087396  1
  Al  Al26  1  0.83635481  0.66826104  0.50161342  1
  Al  Al27  1  0.65059175  0.54086216  0.51026407  1
  Al  Al28  1  0.77343608  0.29137581  0.50281751  1
  Al  Al29  1  0.58440845  0.16725515  0.50644968  1
  Al  Al30  1  0.71068753  0.91729856  0.50434126  1
  Re  Re31  1  0.54161241  0.57990081  0.08671408  1
  N  N32  1  0.22759313  0.70886233  0.62138769  1
  N  N33  1  0.35222041  0.45791235  0.62395868  1
  N  N34  1  0.04077919  0.58351671  0.62037543  1
  N  N35  1  0.16537781  0.33427891  0.62098172  1
  N  N36  1  0.29044319  0.08442769  0.62294378  1
  N  N37  1  0.47913498  0.20419704  0.62644435  1
  N  N38  1  0.10369482  0.95939465  0.62038726  1
  N  N39  1  0.41465927  0.83225595  0.62462579  1
  N  N40  1  0.33172871  0.66534942  0.12386989  1
  N  N41  1  0.44913054  0.39999606  0.12675423  1
  N  N42  1  0.14481581  0.54179115  0.12064786  1
  N  N43  1  0.26827159  0.29079725  0.12276271  1
  N  N44  1  0.39326686  0.04086891  0.12511464  1
  N  N45  1  0.08297977  0.16692391  0.12030066  1
  N  N46  1  0.20744189  0.91662529  0.12125823  1
  N  N47  1  0.02159657  0.79184309  0.12044414  1
  N  N48  1  0.73153583  0.70964202  0.62481702  1
  N  N49  1  0.85467006  0.45963677  0.62239602  1
  N  N50  1  0.54153744  0.58117851  0.52526075  1
  N  N51  1  0.66817703  0.33195221  0.62621636  1
  N  N52  1  0.79337311  0.08340026  0.62349615  1
  N  N53  1  0.97948050  0.20973589  0.62068355  1
  N  N54  1  0.60563206  0.95793795  0.62628037  1
  N  N55  1  0.91804384  0.83497127  0.62139258  1
  N  N56  1  0.83625967  0.66798694  0.12299183  1
  N  N57  1  0.95866070  0.41682936  0.12098196  1
  N  N58  1  0.65637503  0.53897709  0.12657115  1
  N  N59  1  0.77318594  0.29063737  0.12393760  1
  N  N60  1  0.89729061  0.04187018  0.12164535  1
  N  N61  1  0.58395706  0.16897633  0.12707983  1
  N  N62  1  0.70969812  0.91645699  0.12529877  1
  N  N63  1  0.51835237  0.81045355  0.12556621  1
