# generated using pymatgen
data_Al31ReN32
_symmetry_space_group_name_H-M   'P 1'
_cell_length_a   8.18913969
_cell_length_b   8.18879381
_cell_length_c   8.10314106
_cell_angle_alpha   90.02237105
_cell_angle_beta   89.99479506
_cell_angle_gamma   89.96899265
_symmetry_Int_Tables_number   1
_chemical_formula_structural   Al31ReN32
_chemical_formula_sum   'Al31 Re1 N32'
_cell_volume   543.38984216
_cell_formula_units_Z   1
loop_
 _symmetry_equiv_pos_site_id
 _symmetry_equiv_pos_as_xyz
  1  'x, y, z'
loop_
 _atom_site_type_symbol
 _atom_site_label
 _atom_site_symmetry_multiplicity
 _atom_site_fract_x
 _atom_site_fract_y
 _atom_site_fract_z
 _atom_site_occupancy
  Al  Al0  1  0.99881817  0.00145320  0.99850487  1
  Al  Al1  1  1.00042081  0.24787647  0.25071343  1
  Al  Al2  1  0.25009552  -0.00118317  0.25035327  1
  Al  Al3  1  0.24988181  0.24991131  1.00029271  1
  Al  Al4  1  1.00067083  0.99976452  0.50100331  1
  Al  Al5  1  -0.00051514  0.24978323  0.74923883  1
  Al  Al6  1  0.25112103  -0.00039011  0.74972446  1
  Al  Al7  1  0.24987625  0.24959750  0.49967465  1
  Al  Al8  1  0.00006999  0.49905795  0.00000293  1
  Al  Al9  1  0.99927091  0.75180011  0.24926567  1
  Al  Al10  1  0.24741233  0.50115869  0.24900573  1
  Al  Al11  1  0.24912503  0.74990283  -0.00060551  1
  Al  Al12  1  0.99949549  0.50030902  0.49998684  1
  Al  Al13  1  1.00016454  0.75047634  0.74988152  1
  Al  Al14  1  0.24817110  0.49995404  0.75144661  1
  Al  Al15  1  0.24898992  0.75016002  0.50016197  1
  Al  Al16  1  0.49922169  0.99967086  0.99976258  1
  Al  Al17  1  0.49962848  0.24753167  0.25005988  1
  Al  Al18  1  0.75028740  1.00043614  0.25104397  1
  Al  Al19  1  0.74994407  0.24958786  0.00095427  1
  Al  Al20  1  0.49902242  -0.00047833  0.50106782  1
  Al  Al21  1  0.49919286  0.25004808  0.75095448  1
  Al  Al22  1  0.74924620  0.00063193  0.74975310  1
  Al  Al23  1  0.75117183  0.24970425  0.49937222  1
  Al  Al24  1  0.50060262  0.49960909  0.00113286  1
  Al  Al25  1  0.50047717  0.75099874  0.24875359  1
  Al  Al26  1  0.75191344  0.50031623  0.24934923  1
  Al  Al27  1  0.75092617  0.75034649  -0.00036041  1
  Al  Al28  1  0.50185772  0.75017279  0.75100092  1
  Al  Al29  1  0.75161288  0.49869345  0.75112210  1
  Al  Al30  1  0.75110988  0.75091427  0.50011509  1
  Re  Re31  1  0.50005686  0.49997987  0.49953333  1
  N  N32  1  0.25049198  0.25036218  0.25135518  1
  N  N33  1  0.25012428  1.00016863  0.99858388  1
  N  N34  1  1.00034090  0.24860222  -0.00061818  1
  N  N35  1  0.00025583  0.00033393  0.25004681  1
  N  N36  1  0.25221805  0.25250185  0.74803540  1
  N  N37  1  0.24870535  0.99871743  0.50102790  1
  N  N38  1  0.00141332  0.24879475  0.49996358  1
  N  N39  1  1.00064305  1.00046918  0.74990704  1
  N  N40  1  0.25045126  0.75012430  0.25045804  1
  N  N41  1  0.24729719  0.49950564  1.00045299  1
  N  N42  1  0.99995077  0.75113628  0.99876822  1
  N  N43  1  -0.00061568  0.50021592  0.24862368  1
  N  N44  1  0.25199949  0.74690309  0.74956428  1
  N  N45  1  0.23963282  0.50142709  0.49873394  1
  N  N46  1  0.99925917  0.75199792  0.50111349  1
  N  N47  1  -0.00124471  0.49962886  0.75055612  1
  N  N48  1  0.74909413  0.25015699  0.25181432  1
  N  N49  1  0.75062151  1.00090044  -0.00115171  1
  N  N50  1  0.50069129  0.24877044  0.00093383  1
  N  N51  1  0.49997583  0.99958034  0.24921911  1
  N  N52  1  0.74805110  0.25229040  0.74743245  1
  N  N53  1  0.75113252  0.00054332  0.50105474  1
  N  N54  1  0.49904055  0.23956553  0.49855646  1
  N  N55  1  0.50002667  0.00065753  0.75086632  1
  N  N56  1  0.74926844  0.75056206  0.25082610  1
  N  N57  1  0.75154905  0.49874261  0.00159778  1
  N  N58  1  0.50022930  0.75122918  1.00011681  1
  N  N59  1  0.49877582  0.50151024  0.23993025  1
  N  N60  1  0.74844763  0.74733812  0.74962834  1
  N  N61  1  0.76068640  0.50002023  0.49838838  1
  N  N62  1  0.50109767  0.75980548  0.50045731  1
  N  N63  1  0.50039487  0.49869869  0.76066488  1
