# generated using pymatgen
data_Al3FeN4
_symmetry_space_group_name_H-M   'P 1'
_cell_length_a   5.78004904
_cell_length_b   8.18928759
_cell_length_c   8.69558140
_cell_angle_alpha   89.96607056
_cell_angle_beta   89.84811992
_cell_angle_gamma   89.97943083
_symmetry_Int_Tables_number   1
_chemical_formula_structural   Al3FeN4
_chemical_formula_sum   'Al18 Fe6 N24'
_cell_volume   411.59931314
_cell_formula_units_Z   6
loop_
 _symmetry_equiv_pos_site_id
 _symmetry_equiv_pos_as_xyz
  1  'x, y, z'
loop_
 _atom_site_type_symbol
 _atom_site_label
 _atom_site_symmetry_multiplicity
 _atom_site_fract_x
 _atom_site_fract_y
 _atom_site_fract_z
 _atom_site_occupancy
  Al  Al0  1  0.23507693  0.75055499  0.49724385  1
  Al  Al1  1  0.75460426  0.74968279  0.49917433  1
  Al  Al2  1  0.49787581  0.50670016  0.34923552  1
  Al  Al3  1  0.72992717  0.25191502  0.50971282  1
  Al  Al4  1  1.00075401  1.00134391  0.32038201  1
  Al  Al5  1  0.25474886  0.75075193  0.16415734  1
  Al  Al6  1  0.50121144  0.00146294  0.32935160  1
  Al  Al7  1  0.75777278  0.74888189  0.16862998  1
  Al  Al8  1  0.00579237  0.49967515  0.98806498  1
  Al  Al9  1  0.00244858  0.00692631  0.99646076  1
  Al  Al10  1  0.25498983  0.74783066  0.83569964  1
  Al  Al11  1  0.50669778  0.00048852  0.00488499  1
  Al  Al12  1  0.74995467  0.75252443  0.83546318  1
  Al  Al13  1  -0.00222500  0.50042596  0.65845523  1
  Al  Al14  1  0.49621919  0.50006148  0.67691259  1
  Al  Al15  1  0.25086406  0.25066581  0.82671689  1
  Al  Al16  1  0.75102091  0.24769798  0.83662213  1
  Al  Al17  1  0.50137500  -0.00273701  0.67022427  1
  Fe  Fe18  1  0.03102768  0.45481457  0.31811269  1
  Fe  Fe19  1  0.22085720  0.23878974  0.48645716  1
  Fe  Fe20  1  0.52213379  0.47400890  0.02305385  1
  Fe  Fe21  1  0.28214434  0.27359266  0.15538103  1
  Fe  Fe22  1  0.74309932  0.27493177  0.18308841  1
  Fe  Fe23  1  0.01166250  0.01463854  0.65143464  1
  N  N24  1  0.72890296  0.00038498  0.50097950  1
  N  N25  1  0.25498321  0.99702153  0.49428874  1
  N  N26  1  0.50095211  0.74565847  0.33479607  1
  N  N27  1  0.99786113  0.76567846  0.33454293  1
  N  N28  1  0.73084625  0.49732206  0.51176733  1
  N  N29  1  0.24698245  0.50875395  0.50069249  1
  N  N30  1  0.49472453  0.25435760  0.34318800  1
  N  N31  1  0.74891171  -0.00840968  0.16632613  1
  N  N32  1  0.96839391  0.23299433  0.34593254  1
  N  N33  1  0.25351753  -0.00559417  0.16519507  1
  N  N34  1  0.50204459  0.75709449  0.00226981  1
  N  N35  1  0.00647561  0.74752410  -0.00341139  1
  N  N36  1  0.76726378  0.50834074  0.16652039  1
  N  N37  1  0.25983935  0.51024689  0.16624116  1
  N  N38  1  0.50081486  0.24132466  0.98873473  1
  N  N39  1  0.74940845  -0.00107026  0.84077595  1
  N  N40  1  0.00615924  0.25187218  0.98437632  1
  N  N41  1  0.25254829  1.00116136  0.83405987  1
  N  N42  1  0.49360571  0.75265483  0.67227517  1
  N  N43  1  -0.00913778  0.74289575  0.66302398  1
  N  N44  1  0.74829639  0.49976713  0.83616079  1
  N  N45  1  0.23848645  0.49884999  0.82216189  1
  N  N46  1  0.50628882  0.24757083  0.67789047  1
  N  N47  1  0.99166443  0.25596082  0.66716618  1
