# generated using pymatgen
data_Al11ReN12
_symmetry_space_group_name_H-M   'P 1'
_cell_length_a   5.01524952
_cell_length_b   5.78926402
_cell_length_c   7.09561165
_cell_angle_alpha   90.01482545
_cell_angle_beta   90.09108098
_cell_angle_gamma   89.98947153
_symmetry_Int_Tables_number   1
_chemical_formula_structural   Al11ReN12
_chemical_formula_sum   'Al11 Re1 N12'
_cell_volume   206.01800073
_cell_formula_units_Z   1
loop_
 _symmetry_equiv_pos_site_id
 _symmetry_equiv_pos_as_xyz
  1  'x, y, z'
loop_
 _atom_site_type_symbol
 _atom_site_label
 _atom_site_symmetry_multiplicity
 _atom_site_fract_x
 _atom_site_fract_y
 _atom_site_fract_z
 _atom_site_occupancy
  Al  Al0  1  0.49968872  0.24790813  1.00151152  1
  Al  Al1  1  0.33388303  1.00017409  0.67212364  1
  Al  Al2  1  0.16588921  0.75231861  0.33288618  1
  Al  Al3  1  0.49954583  0.75124483  1.00116429  1
  Al  Al4  1  0.33634535  0.49985308  0.67048306  1
  Al  Al5  1  -0.00144437  0.99971199  0.99317218  1
  Al  Al6  1  0.83363085  0.75127430  0.66595862  1
  Al  Al7  1  0.99606916  0.49885381  0.99625342  1
  Al  Al8  1  0.16636603  0.24743951  0.33320108  1
  Al  Al9  1  0.83315159  0.24825475  0.66507686  1
  Al  Al10  1  0.66672103  0.99723923  0.33308888  1
  Re  Re11  1  0.66632893  0.49872739  0.33325384  1
  N  N12  1  0.16759149  0.25043309  0.83322858  1
  N  N13  1  0.49160295  0.23941807  0.50991774  1
  N  N14  1  0.34197892  0.99959044  0.17022600  1
  N  N15  1  0.16783307  0.75290048  0.83338889  1
  N  N16  1  0.49260253  0.76020784  0.51026188  1
  N  N17  1  0.31291424  0.49975654  0.15916511  1
  N  N18  1  0.84095805  0.23883391  0.15665353  1
  N  N19  1  0.66753135  0.00215397  0.83316981  1
  N  N20  1  0.99127161  0.00019945  0.49660094  1
  N  N21  1  0.84107433  0.76105016  0.15643227  1
  N  N22  1  0.66764164  0.50162700  0.83356867  1
  N  N23  1  0.01969842  0.50065089  0.50758579  1
