# generated using pymatgen
data_TaAl11N12
_symmetry_space_group_name_H-M   'P 1'
_cell_length_a   5.04281283
_cell_length_b   5.46750476
_cell_length_c   9.49413520
_cell_angle_alpha   90.00594178
_cell_angle_beta   89.99995744
_cell_angle_gamma   90.00774081
_symmetry_Int_Tables_number   1
_chemical_formula_structural   TaAl11N12
_chemical_formula_sum   'Ta1 Al11 N12'
_cell_volume   261.76852384
_cell_formula_units_Z   1
loop_
 _symmetry_equiv_pos_site_id
 _symmetry_equiv_pos_as_xyz
  1  'x, y, z'
loop_
 _atom_site_type_symbol
 _atom_site_label
 _atom_site_symmetry_multiplicity
 _atom_site_fract_x
 _atom_site_fract_y
 _atom_site_fract_z
 _atom_site_occupancy
  Ta  Ta0  1  0.51495381  0.33085074  0.66671108  1
  Al  Al1  1  0.00699090  0.16418647  0.83995575  1
  Al  Al2  1  0.50082655  0.83398610  0.16671744  1
  Al  Al3  1  0.49982749  0.33627300  0.00672260  1
  Al  Al4  1  0.00182599  0.16517649  0.16668153  1
  Al  Al5  1  0.00262697  0.66517866  0.33055898  1
  Al  Al6  1  0.00696199  0.16413716  0.49339708  1
  Al  Al7  1  0.00685832  0.67864501  0.66670468  1
  Al  Al8  1  0.00264240  0.66521323  0.00278239  1
  Al  Al9  1  0.49984081  0.33618523  0.32667223  1
  Al  Al10  1  0.49989150  0.82874008  0.49358623  1
  Al  Al11  1  0.49998558  0.82873190  0.83978368  1
  N  N12  1  0.62305113  0.16478729  0.16668515  1
  N  N13  1  0.62383501  0.66498058  0.33136384  1
  N  N14  1  0.62445924  0.16000661  0.48956161  1
  N  N15  1  0.62490419  0.68646640  0.66668033  1
  N  N16  1  0.62450178  0.16000677  0.84373315  1
  N  N17  1  0.62384603  0.66501248  0.00202736  1
  N  N18  1  0.12242188  0.83358090  0.16669817  1
  N  N19  1  0.12319342  0.33382318  0.33140756  1
  N  N20  1  0.12358639  0.83284712  0.49833090  1
  N  N21  1  0.09441834  0.33347736  0.66669081  1
  N  N22  1  0.12363532  0.83283836  0.83510803  1
  N  N23  1  0.12318804  0.33385254  0.00198025  1
