# generated using pymatgen
data_NbAl11N12
_symmetry_space_group_name_H-M   'P 1'
_cell_length_a   5.03460512
_cell_length_b   5.47827202
_cell_length_c   9.51632561
_cell_angle_alpha   89.99923900
_cell_angle_beta   90.00056284
_cell_angle_gamma   90.00557323
_symmetry_Int_Tables_number   1
_chemical_formula_structural   NbAl11N12
_chemical_formula_sum   'Nb1 Al11 N12'
_cell_volume   262.46916969
_cell_formula_units_Z   1
loop_
 _symmetry_equiv_pos_site_id
 _symmetry_equiv_pos_as_xyz
  1  'x, y, z'
loop_
 _atom_site_type_symbol
 _atom_site_label
 _atom_site_symmetry_multiplicity
 _atom_site_fract_x
 _atom_site_fract_y
 _atom_site_fract_z
 _atom_site_occupancy
  Nb  Nb0  1  0.52065803  0.33167198  0.66665024  1
  Al  Al1  1  0.00772945  0.16466774  0.84035881  1
  Al  Al2  1  0.50211687  0.83090258  0.16670600  1
  Al  Al3  1  0.50036709  0.33503961  0.00844379  1
  Al  Al4  1  0.00282469  0.16386721  0.16663532  1
  Al  Al5  1  0.00366252  0.66492645  0.33039774  1
  Al  Al6  1  0.00783401  0.16455000  0.49297899  1
  Al  Al7  1  0.00618006  0.67901445  0.66667083  1
  Al  Al8  1  0.00376398  0.66499083  0.00297829  1
  Al  Al9  1  0.50029528  0.33497205  0.32490949  1
  Al  Al10  1  0.50152450  0.83159769  0.49240847  1
  Al  Al11  1  0.50149300  0.83156642  0.84094532  1
  N  N12  1  0.62373838  0.16048920  0.16665484  1
  N  N13  1  0.62429297  0.66305173  0.33077010  1
  N  N14  1  0.62601809  0.15880378  0.48400845  1
  N  N15  1  0.62591835  0.69914996  0.66665253  1
  N  N16  1  0.62590226  0.15883399  0.84929611  1
  N  N17  1  0.62439301  0.66307782  0.00258733  1
  N  N18  1  0.12296595  0.83273444  0.16668015  1
  N  N19  1  0.12282662  0.33415417  0.33036722  1
  N  N20  1  0.12359879  0.83265239  0.49721402  1
  N  N21  1  0.07554419  0.33283454  0.66667172  1
  N  N22  1  0.12355761  0.83272762  0.83613177  1
  N  N23  1  0.12287819  0.33421038  0.00294857  1
