# generated using pymatgen
data_Al3ReN4
_symmetry_space_group_name_H-M   'P 1'
_cell_length_a   5.91727500
_cell_length_b   8.00936934
_cell_length_c   12.56131211
_cell_angle_alpha   106.64628610
_cell_angle_beta   92.72989626
_cell_angle_gamma   108.91137771
_symmetry_Int_Tables_number   1
_chemical_formula_structural   Al3ReN4
_chemical_formula_sum   'Al18 Re6 N24'
_cell_volume   533.06901035
_cell_formula_units_Z   6
loop_
 _symmetry_equiv_pos_site_id
 _symmetry_equiv_pos_as_xyz
  1  'x, y, z'
loop_
 _atom_site_type_symbol
 _atom_site_label
 _atom_site_symmetry_multiplicity
 _atom_site_fract_x
 _atom_site_fract_y
 _atom_site_fract_z
 _atom_site_occupancy
  Al  Al0  1  0.44127713  0.64499680  0.18896448  1
  Al  Al1  1  0.11000257  0.22747514  0.10811295  1
  Al  Al2  1  0.09501014  0.72182691  0.63434767  1
  Al  Al3  1  0.77361368  0.80918861  0.02780734  1
  Al  Al4  1  0.77050837  0.07206070  0.26958372  1
  Al  Al5  1  0.78764317  0.30377212  0.52599268  1
  Al  Al6  1  0.77804399  0.54991141  0.77862231  1
  Al  Al7  1  0.44930055  0.13268228  0.70300565  1
  Al  Al8  1  0.44478763  0.38932509  0.94710433  1
  Al  Al9  1  0.11428629  0.97511935  0.86584976  1
  Al  Al10  1  0.21816942  0.95263625  0.20854182  1
  Al  Al11  1  0.88194636  0.53441919  0.13492407  1
  Al  Al12  1  0.89004679  0.02197755  0.64292316  1
  Al  Al13  1  0.55727606  0.11776521  0.05383303  1
  Al  Al14  1  0.54988723  0.36645404  0.30113036  1
  Al  Al15  1  0.55794777  0.59579569  0.54295878  1
  Al  Al16  1  0.21997595  0.69455439  0.97350417  1
  Al  Al17  1  0.88810361  0.27331203  0.89196608  1
  Re  Re18  1  0.12503079  0.52477339  0.36598470  1
  Re  Re19  1  0.39250347  0.88145373  0.42427551  1
  Re  Re20  1  0.92681919  0.78728941  0.39650478  1
  Re  Re21  1  0.52712378  0.81452801  0.79408167  1
  Re  Re22  1  0.20268348  0.13288605  0.46344675  1
  Re  Re23  1  0.24899388  0.46688442  0.72580974  1
  N  N24  1  0.68185653  0.57267742  0.24579804  1
  N  N25  1  0.36422377  0.16810220  0.16705447  1
  N  N26  1  0.36080437  0.40325649  0.41613806  1
  N  N27  1  0.35670331  0.64557119  0.64539236  1
  N  N28  1  0.02541485  0.74439325  0.08577438  1
  N  N29  1  0.01687118  -0.00097591  0.31221488  1
  N  N30  1  0.02297867  0.22819137  0.59043502  1
  N  N31  1  0.02507748  0.48957014  0.84900601  1
  N  N32  1  0.70181290  0.82213063  0.51436919  1
  N  N33  1  0.70846804  0.07660616  0.76171298  1
  N  N34  1  0.69732439  0.32711697  0.00592442  1
  N  N35  1  0.36028889  0.91050700  0.93108950  1
  N  N36  1  0.46766252  0.89063029  0.26825283  1
  N  N37  1  0.13616691  0.47186965  0.19233299  1
  N  N38  1  0.14283792  0.72785074  0.49575518  1
  N  N39  1  0.14279861  0.97017168  0.71607288  1
  N  N40  1  0.80577457  0.05633888  0.11505765  1
  N  N41  1  0.79451275  0.30333547  0.37058780  1
  N  N42  1  0.79507869  0.53931411  0.62522682  1
  N  N43  1  0.82653004  0.79324416  0.87784069  1
  N  N44  1  0.50521828  0.14173317  0.55755096  1
  N  N45  1  0.49157986  0.37468114  0.79791787  1
  N  N46  1  0.47268955  0.63312707  0.03427724  1
  N  N47  1  0.14223936  0.21745637  0.95537364  1
