# generated using pymatgen
data_MnAl3N4
_symmetry_space_group_name_H-M   'P 1'
_cell_length_a   5.81598036
_cell_length_b   8.22214339
_cell_length_c   8.74630347
_cell_angle_alpha   89.92478249
_cell_angle_beta   90.07403137
_cell_angle_gamma   89.98033647
_symmetry_Int_Tables_number   1
_chemical_formula_structural   MnAl3N4
_chemical_formula_sum   'Mn6 Al18 N24'
_cell_volume   418.24596251
_cell_formula_units_Z   6
loop_
 _symmetry_equiv_pos_site_id
 _symmetry_equiv_pos_as_xyz
  1  'x, y, z'
loop_
 _atom_site_type_symbol
 _atom_site_label
 _atom_site_symmetry_multiplicity
 _atom_site_fract_x
 _atom_site_fract_y
 _atom_site_fract_z
 _atom_site_occupancy
  Mn  Mn0  1  0.00195331  0.49868241  0.33058455  1
  Mn  Mn1  1  0.24298246  0.25071826  0.49678690  1
  Mn  Mn2  1  0.50568077  0.49823700  0.00551435  1
  Mn  Mn3  1  0.25344747  0.25221473  0.16806873  1
  Mn  Mn4  1  0.75317748  0.25176307  0.16958430  1
  Mn  Mn5  1  -0.00179604  0.00201123  0.66241464  1
  Al  Al6  1  0.24416857  0.75039804  0.49837152  1
  Al  Al7  1  0.74601490  0.74851168  0.50376344  1
  Al  Al8  1  0.49935848  0.50509480  0.34256477  1
  Al  Al9  1  0.74304514  0.25186920  0.50527997  1
  Al  Al10  1  0.00439119  0.99597350  0.32790621  1
  Al  Al11  1  0.25430281  0.75088825  0.16360887  1
  Al  Al12  1  0.50511121  -0.00446568  0.33594407  1
  Al  Al13  1  0.75500003  0.75032624  0.16792256  1
  Al  Al14  1  0.00267150  0.50056251  0.99186257  1
  Al  Al15  1  0.00179706  -0.00035660  0.99590666  1
  Al  Al16  1  0.25018275  0.75057461  0.83226841  1
  Al  Al17  1  0.50166911  -0.00167553  0.00169733  1
  Al  Al18  1  0.74769053  0.75283966  0.83530262  1
  Al  Al19  1  -0.00356280  0.50263295  0.66604608  1
  Al  Al20  1  0.49479179  0.50208799  0.67127724  1
  Al  Al21  1  0.25287533  0.24972251  0.83177135  1
  Al  Al22  1  0.74842313  0.24835886  0.83453783  1
  Al  Al23  1  0.49550302  0.99854958  0.66850668  1
  N  N24  1  0.74051619  -0.00263717  0.50065284  1
  N  N25  1  0.25976295  0.98680888  0.49041142  1
  N  N26  1  0.50589622  0.74598023  0.33480687  1
  N  N27  1  0.00087881  0.75612615  0.33203128  1
  N  N28  1  0.73510356  0.50268668  0.50987358  1
  N  N29  1  0.25256043  0.51270575  0.50437224  1
  N  N30  1  0.50513373  0.25279468  0.34694282  1
  N  N31  1  0.75287944  0.99081233  0.16991947  1
  N  N32  1  0.99511045  0.24073745  0.33489979  1
  N  N33  1  0.25216875  -0.01027212  0.16316301  1
  N  N34  1  0.50243155  0.75584237  0.00077934  1
  N  N35  1  0.00395806  0.75106155  -0.00500728  1
  N  N36  1  0.76059715  0.50782994  0.16520479  1
  N  N37  1  0.25957623  0.51002262  0.16191967  1
  N  N38  1  0.50108449  0.24248715  0.99470969  1
  N  N39  1  0.74343664  -0.00283347  0.84170097  1
  N  N40  1  0.00277163  0.24854803  0.98104431  1
  N  N41  1  0.25365621  0.99831534  0.83259310  1
  N  N42  1  0.49660171  0.75251203  0.67189162  1
  N  N43  1  -0.00610085  0.74478116  0.66444884  1
  N  N44  1  0.75247788  0.50287722  0.83235690  1
  N  N45  1  0.24341299  0.50131614  0.82627423  1
  N  N46  1  0.50141604  0.24727105  0.67560142  1
  N  N47  1  0.98994404  0.25823892  0.66254580  1
