# generated using pymatgen
data_Al11WN12
_symmetry_space_group_name_H-M   'P 1'
_cell_length_a   5.03143074
_cell_length_b   5.81421492
_cell_length_c   7.12298615
_cell_angle_alpha   90.00176218
_cell_angle_beta   90.14587352
_cell_angle_gamma   89.99958006
_symmetry_Int_Tables_number   1
_chemical_formula_structural   Al11WN12
_chemical_formula_sum   'Al11 W1 N12'
_cell_volume   208.37387698
_cell_formula_units_Z   1
loop_
 _symmetry_equiv_pos_site_id
 _symmetry_equiv_pos_as_xyz
  1  'x, y, z'
loop_
 _atom_site_type_symbol
 _atom_site_label
 _atom_site_symmetry_multiplicity
 _atom_site_fract_x
 _atom_site_fract_y
 _atom_site_fract_z
 _atom_site_occupancy
  Al  Al0  1  0.49982925  0.24724080  1.00040576  1
  Al  Al1  1  0.33434676  0.00054190  0.67471028  1
  Al  Al2  1  0.16625101  0.75501308  0.33377201  1
  Al  Al3  1  0.50042800  0.75247033  0.99988033  1
  Al  Al4  1  0.33640871  0.50097293  0.67113499  1
  Al  Al5  1  0.00010017  0.00022870  0.99235868  1
  Al  Al6  1  0.83393213  0.75256216  0.66675017  1
  Al  Al7  1  -0.00247039  0.50053341  0.99517476  1
  Al  Al8  1  0.16651011  0.24558586  0.33411944  1
  Al  Al9  1  0.83330847  0.24696066  0.66683329  1
  Al  Al10  1  0.66530645  0.99728522  0.33426209  1
  W  W11  1  0.66655366  0.49845669  0.33258321  1
  N  N12  1  0.16604276  0.24803459  0.83336945  1
  N  N13  1  0.48921331  0.23756345  0.51125171  1
  N  N14  1  0.34281142  1.00001240  0.16971987  1
  N  N15  1  0.16688124  0.75083534  0.83323192  1
  N  N16  1  0.48894003  0.76450308  0.51146506  1
  N  N17  1  0.31346643  0.49960557  0.15740890  1
  N  N18  1  0.84430623  0.23844637  0.15503361  1
  N  N19  1  0.66628486  0.99945548  0.83277747  1
  N  N20  1  0.99048984  0.00033542  0.49700181  1
  N  N21  1  0.84553100  0.76420223  0.15439334  1
  N  N22  1  0.66573510  0.49960998  0.83280131  1
  N  N23  1  0.02167370  0.50066053  0.50962963  1
