# generated using pymatgen
data_Al3MoN4
_symmetry_space_group_name_H-M   'P 1'
_cell_length_a   5.95139432
_cell_length_b   8.05841469
_cell_length_c   12.56137808
_cell_angle_alpha   105.60561081
_cell_angle_beta   93.90815051
_cell_angle_gamma   108.03392356
_symmetry_Int_Tables_number   1
_chemical_formula_structural   Al3MoN4
_chemical_formula_sum   'Al18 Mo6 N24'
_cell_volume   544.12140103
_cell_formula_units_Z   6
loop_
 _symmetry_equiv_pos_site_id
 _symmetry_equiv_pos_as_xyz
  1  'x, y, z'
loop_
 _atom_site_type_symbol
 _atom_site_label
 _atom_site_symmetry_multiplicity
 _atom_site_fract_x
 _atom_site_fract_y
 _atom_site_fract_z
 _atom_site_occupancy
  Al  Al0  1  0.43873235  0.63817438  0.18696898  1
  Al  Al1  1  0.10820825  0.22391714  0.10729223  1
  Al  Al2  1  0.09875756  0.72866689  0.62273273  1
  Al  Al3  1  0.76892701  0.80450710  0.02622129  1
  Al  Al4  1  0.77191266  0.05189025  0.26797191  1
  Al  Al5  1  0.77241562  0.30007892  0.52687789  1
  Al  Al6  1  0.78282438  0.55231109  0.77996144  1
  Al  Al7  1  0.45034945  0.13858323  0.70360364  1
  Al  Al8  1  0.44338869  0.38903297  0.94594308  1
  Al  Al9  1  0.11141877  0.97695101  0.86867167  1
  Al  Al10  1  0.21575355  0.94419346  0.20169148  1
  Al  Al11  1  0.88399558  0.52854682  0.13239703  1
  Al  Al12  1  0.89706461  0.02687956  0.65258491  1
  Al  Al13  1  0.55950187  0.11770487  0.05564496  1
  Al  Al14  1  0.55441422  0.35749223  0.29629735  1
  Al  Al15  1  0.57350740  0.60464932  0.55149405  1
  Al  Al16  1  0.21650362  0.69020622  0.97258181  1
  Al  Al17  1  0.88825489  0.27699781  0.89316508  1
  Mo  Mo18  1  0.10841564  0.49354286  0.36458583  1
  Mo  Mo19  1  0.32319117  0.92726305  0.41460746  1
  Mo  Mo20  1  0.89417226  0.77414322  0.39361356  1
  Mo  Mo21  1  0.52355673  0.83223142  0.80013050  1
  Mo  Mo22  1  0.20509238  0.20301410  0.47363897  1
  Mo  Mo23  1  0.23115854  0.45420402  0.71465318  1
  N  N24  1  0.68476173  0.56239824  0.24160649  1
  N  N25  1  0.36433034  0.16313398  0.16684589  1
  N  N26  1  0.40052471  0.42039103  0.41709838  1
  N  N27  1  0.37101505  0.66209926  0.65106811  1
  N  N28  1  0.02053423  0.73721067  0.08334836  1
  N  N29  1  0.03355205  0.98638857  0.31639010  1
  N  N30  1  -0.00498256  0.22427953  0.59666407  1
  N  N31  1  0.02601209  0.48996025  0.84912214  1
  N  N32  1  0.75847512  0.81929160  0.53275347  1
  N  N33  1  0.70817791  0.08150127  0.76453759  1
  N  N34  1  0.69689910  0.32404654  0.00616543  1
  N  N35  1  0.35592200  0.91163022  0.93608659  1
  N  N36  1  0.46775784  0.88195002  0.26248504  1
  N  N37  1  0.13931519  0.46557912  0.19124920  1
  N  N38  1  0.16737934  0.72265696  0.48117249  1
  N  N39  1  0.15635345  0.97093671  0.71964889  1
  N  N40  1  0.80978179  0.05059574  0.11561960  1
  N  N41  1  0.78621140  0.28003752  0.36750232  1
  N  N42  1  0.81529260  0.53980038  0.62707272  1
  N  N43  1  0.82261746  0.79444017  0.87579239  1
  N  N44  1  0.48705610  0.15047075  0.55832134  1
  N  N45  1  0.49535167  0.37914274  0.79678658  1
  N  N46  1  0.47296806  0.63015774  0.03327309  1
  N  N47  1  0.14378070  0.21824318  0.95566167  1
