# generated using pymatgen
data_Al11OsN12
_symmetry_space_group_name_H-M   'P 1'
_cell_length_a   5.02300431
_cell_length_b   5.78255365
_cell_length_c   7.09456158
_cell_angle_alpha   90.00217199
_cell_angle_beta   89.77752432
_cell_angle_gamma   90.00791764
_symmetry_Int_Tables_number   1
_chemical_formula_structural   Al11OsN12
_chemical_formula_sum   'Al11 Os1 N12'
_cell_volume   206.06560392
_cell_formula_units_Z   1
loop_
 _symmetry_equiv_pos_site_id
 _symmetry_equiv_pos_as_xyz
  1  'x, y, z'
loop_
 _atom_site_type_symbol
 _atom_site_label
 _atom_site_symmetry_multiplicity
 _atom_site_fract_x
 _atom_site_fract_y
 _atom_site_fract_z
 _atom_site_occupancy
  Al  Al0  1  0.49998586  0.24893334  1.00245949  1
  Al  Al1  1  0.33278092  0.99989583  0.66982847  1
  Al  Al2  1  0.16784441  0.74893238  0.33376858  1
  Al  Al3  1  0.49974136  0.74990345  1.00206796  1
  Al  Al4  1  0.34048482  0.49898955  0.66870689  1
  Al  Al5  1  -0.00094363  -0.00056816  0.99593605  1
  Al  Al6  1  0.83216034  0.75047201  0.66418994  1
  Al  Al7  1  0.99311615  0.50047450  0.99700634  1
  Al  Al8  1  0.16544193  0.25100185  0.33233128  1
  Al  Al9  1  0.83317492  0.24940629  0.66488959  1
  Al  Al10  1  0.66733398  0.99977449  0.33271845  1
  Os  Os11  1  0.66657693  0.49967059  0.33336323  1
  N  N12  1  0.16878857  0.24950347  0.83357957  1
  N  N13  1  0.49763079  0.23815133  0.51179105  1
  N  N14  1  0.33642772  0.00068481  0.17206624  1
  N  N15  1  0.16838721  0.75336275  0.83394099  1
  N  N16  1  0.49638333  0.76163673  0.51185248  1
  N  N17  1  0.30608678  0.50078538  0.15817674  1
  N  N18  1  0.83602715  0.23755305  0.15523399  1
  N  N19  1  0.66825235  0.00179359  0.83330884  1
  N  N20  1  0.99650766  0.99900856  0.49544113  1
  N  N21  1  0.83465080  0.76192487  0.15503836  1
  N  N22  1  0.66877492  0.50134018  0.83347884  1
  N  N23  1  0.02642589  0.49871261  0.50854935  1
