# generated using pymatgen
data_Al31OsN32
_symmetry_space_group_name_H-M   'P 1'
_cell_length_a   16.56838527
_cell_length_b   8.27880472
_cell_length_c   5.03441350
_cell_angle_alpha   89.98780318
_cell_angle_beta   89.99458397
_cell_angle_gamma   98.18330299
_symmetry_Int_Tables_number   1
_chemical_formula_structural   Al31OsN32
_chemical_formula_sum   'Al31 Os1 N32'
_cell_volume   683.52111126
_cell_formula_units_Z   1
loop_
 _symmetry_equiv_pos_site_id
 _symmetry_equiv_pos_as_xyz
  1  'x, y, z'
loop_
 _atom_site_type_symbol
 _atom_site_label
 _atom_site_symmetry_multiplicity
 _atom_site_fract_x
 _atom_site_fract_y
 _atom_site_fract_z
 _atom_site_occupancy
  Al  Al0  1  0.16521534  0.33386137  0.00028344  1
  Al  Al1  1  0.28966575  0.08372155  0.00210325  1
  Al  Al2  1  0.47877016  0.20277198  1.00212412  1
  Al  Al3  1  0.10380393  0.95876083  0.00048439  1
  Al  Al4  1  0.41291287  0.83374582  1.00093599  1
  Al  Al5  1  0.45534370  0.41063731  0.50702234  1
  Al  Al6  1  0.39385158  0.04139367  0.50322606  1
  Al  Al7  1  0.02118398  0.79196420  0.50006028  1
  Al  Al8  1  0.22758116  0.70833454  0.00128787  1
  Al  Al9  1  0.35042095  0.45759697  0.99990046  1
  Al  Al10  1  0.04131921  0.58371139  0.00023707  1
  Al  Al11  1  0.33171416  0.66596318  0.50203029  1
  Al  Al12  1  0.14473144  0.54187858  0.50058951  1
  Al  Al13  1  0.26890844  0.29135662  0.50144921  1
  Al  Al14  1  0.08306547  0.16701196  0.50007605  1
  Al  Al15  1  0.20737254  0.91698860  0.50149625  1
  Al  Al16  1  0.66906848  0.33015613  1.00162391  1
  Al  Al17  1  0.79354837  0.08278309  0.00240253  1
  Al  Al18  1  0.97959313  0.20917270  0.00058834  1
  Al  Al19  1  0.60641245  0.96090441  1.00246860  1
  Al  Al20  1  0.91827124  0.83471865  0.00049047  1
  Al  Al21  1  0.95852029  0.41702292  0.50061265  1
  Al  Al22  1  0.89721772  0.04234503  0.50122842  1
  Al  Al23  1  0.51962901  0.79759493  0.50807934  1
  Al  Al24  1  0.73313777  0.71146854  1.00035309  1
  Al  Al25  1  0.85534079  0.45862079  0.00157083  1
  Al  Al26  1  0.83552250  0.66768258  0.50152814  1
  Al  Al27  1  0.64961199  0.54080467  0.50680166  1
  Al  Al28  1  0.77270099  0.29096241  0.50266569  1
  Al  Al29  1  0.58414967  0.16739610  0.50416176  1
  Al  Al30  1  0.70978621  0.91647955  0.50343930  1
  Os  Os31  1  0.54177312  0.58287751  0.09114609  1
  N  N32  1  0.22828937  0.70853773  0.62234212  1
  N  N33  1  0.35299465  0.45804011  0.62318235  1
  N  N34  1  0.04110220  0.58367074  0.62159627  1
  N  N35  1  0.16584948  0.33415212  0.62190633  1
  N  N36  1  0.29068705  0.08426435  0.62368536  1
  N  N37  1  0.47920681  0.20525668  0.62481754  1
  N  N38  1  0.10385203  0.95899854  0.62160758  1
  N  N39  1  0.41500841  0.83278717  0.62417594  1
  N  N40  1  0.33223370  0.66565715  0.12360419  1
  N  N41  1  0.45091393  0.40287112  0.12445683  1
  N  N42  1  0.14521150  0.54191267  0.12180481  1
  N  N43  1  0.26887497  0.29123598  0.12313242  1
  N  N44  1  0.39363745  0.04138414  0.12456093  1
  N  N45  1  0.08314935  0.16681693  0.12145236  1
  N  N46  1  0.20777075  0.91649697  0.12256314  1
  N  N47  1  0.02128177  0.79186712  0.12155908  1
  N  N48  1  0.73083828  0.70882240  0.62382401  1
  N  N49  1  0.85444238  0.45899582  0.62297346  1
  N  N50  1  0.54164081  0.58250984  0.52831102  1
  N  N51  1  0.66780516  0.33212110  0.62458617  1
  N  N52  1  0.79271824  0.08271286  0.62374558  1
  N  N53  1  0.97940443  0.20940407  0.62190175  1
  N  N54  1  0.60525629  0.95793503  0.62524106  1
  N  N55  1  0.91753196  0.83441697  0.62223970  1
  N  N56  1  0.83558025  0.66756645  0.12303286  1
  N  N57  1  0.95860603  0.41687782  0.12201010  1
  N  N58  1  0.65502294  0.53909114  0.12467681  1
  N  N59  1  0.77264802  0.29017609  0.12381343  1
  N  N60  1  0.89686731  0.04174342  0.12265650  1
  N  N61  1  0.58391495  0.16856815  0.12511098  1
  N  N62  1  0.70925193  0.91615016  0.12457635  1
  N  N63  1  0.51834000  0.80903264  0.12503641  1
