# generated using pymatgen
data_TiAl11N12
_symmetry_space_group_name_H-M   'P 1'
_cell_length_a   5.02675420
_cell_length_b   5.43947746
_cell_length_c   9.43335025
_cell_angle_alpha   89.99923930
_cell_angle_beta   90.00485519
_cell_angle_gamma   89.95454345
_symmetry_Int_Tables_number   1
_chemical_formula_structural   TiAl11N12
_chemical_formula_sum   'Ti1 Al11 N12'
_cell_volume   257.93522305
_cell_formula_units_Z   1
loop_
 _symmetry_equiv_pos_site_id
 _symmetry_equiv_pos_as_xyz
  1  'x, y, z'
loop_
 _atom_site_type_symbol
 _atom_site_label
 _atom_site_symmetry_multiplicity
 _atom_site_fract_x
 _atom_site_fract_y
 _atom_site_fract_z
 _atom_site_occupancy
  Ti  Ti0  1  0.50682266  0.33211489  0.66661722  1
  Al  Al1  1  0.00529105  0.16516441  0.83723086  1
  Al  Al2  1  0.50193718  0.83405310  0.16665793  1
  Al  Al3  1  0.50165572  0.33500397  0.00374679  1
  Al  Al4  1  0.00223739  0.16546123  0.16663590  1
  Al  Al5  1  0.00249018  0.66565037  0.33161210  1
  Al  Al6  1  0.00509711  0.16518986  0.49606466  1
  Al  Al7  1  0.00530909  0.67530896  0.66666519  1
  Al  Al8  1  0.00270883  0.66559863  0.00172647  1
  Al  Al9  1  0.50144133  0.33505646  0.32953934  1
  Al  Al10  1  0.50075714  0.83041458  0.49621801  1
  Al  Al11  1  0.50094875  0.83041533  0.83712206  1
  N  N12  1  0.62336418  0.16610391  0.16667909  1
  N  N13  1  0.62355741  0.66568701  0.33321271  1
  N  N14  1  0.62264775  0.16406105  0.49667520  1
  N  N15  1  0.62387045  0.67531338  0.66663749  1
  N  N16  1  0.62280179  0.16415341  0.83658606  1
  N  N17  1  0.62373797  0.66566272  0.00014173  1
  N  N18  1  0.12291325  0.83315619  0.16668021  1
  N  N19  1  0.12320716  0.33329047  0.33335393  1
  N  N20  1  0.12310053  0.83350100  0.49945729  1
  N  N21  1  0.10829770  0.33453799  0.66662899  1
  N  N22  1  0.12326258  0.83344426  0.83384575  1
  N  N23  1  0.12339664  0.33321489  -0.00004231  1
