# generated using pymatgen
data_Al11BN12
_symmetry_space_group_name_H-M   'P 1'
_cell_length_a   4.94459967
_cell_length_b   5.95096196
_cell_length_c   7.18490321
_cell_angle_alpha   87.72413488
_cell_angle_beta   96.51485678
_cell_angle_gamma   91.75819360
_symmetry_Int_Tables_number   1
_chemical_formula_structural   Al11BN12
_chemical_formula_sum   'Al11 B1 N12'
_cell_volume   209.81278618
_cell_formula_units_Z   1
loop_
 _symmetry_equiv_pos_site_id
 _symmetry_equiv_pos_as_xyz
  1  'x, y, z'
loop_
 _atom_site_type_symbol
 _atom_site_label
 _atom_site_symmetry_multiplicity
 _atom_site_fract_x
 _atom_site_fract_y
 _atom_site_fract_z
 _atom_site_occupancy
  Al  Al0  1  0.54444546  0.25960878  0.00772850  1
  Al  Al1  1  0.31753541  1.00670926  0.67124172  1
  Al  Al2  1  0.15067426  0.66503762  0.33714417  1
  Al  Al3  1  0.52626037  0.75459215  0.00562562  1
  Al  Al4  1  0.33163612  0.51358675  0.68536480  1
  Al  Al5  1  0.02205736  0.01791288  0.99399204  1
  Al  Al6  1  0.80432922  0.75886281  0.66820970  1
  Al  Al7  1  1.00372603  0.51474495  0.99478419  1
  Al  Al8  1  0.17215540  0.17715274  0.32107777  1
  Al  Al9  1  0.82542773  0.24913006  0.65193220  1
  Al  Al10  1  0.67391664  0.91992177  0.32622680  1
  B  B11  1  0.60430386  0.44647209  0.37775755  1
  N  N12  1  0.17652585  0.25936777  0.81730394  1
  N  N13  1  0.45636391  0.28875213  0.50228471  1
  N  N14  1  0.38752504  0.02092093  0.15368822  1
  N  N15  1  0.16885862  0.74604016  0.83519570  1
  N  N16  1  0.44005124  0.77950028  0.51322057  1
  N  N17  1  0.42196845  0.51960314  0.19982113  1
  N  N18  1  0.90397338  0.26072749  0.13714702  1
  N  N19  1  0.67354237  0.00942670  0.82199551  1
  N  N20  1  0.95897666  1.02155428  0.50301928  1
  N  N21  1  0.88639783  0.77742901  0.15234303  1
  N  N22  1  0.66368913  0.51740528  0.84155588  1
  N  N23  1  0.88668791  0.51556548  0.48106421  1
