# generated using pymatgen
data_Al11SiN12
_symmetry_space_group_name_H-M   'P 1'
_cell_length_a   5.01939460
_cell_length_b   5.37833343
_cell_length_c   9.32379115
_cell_angle_alpha   90.00169237
_cell_angle_beta   89.99872649
_cell_angle_gamma   90.01615820
_symmetry_Int_Tables_number   1
_chemical_formula_structural   Al11SiN12
_chemical_formula_sum   'Al11 Si1 N12'
_cell_volume   251.70484845
_cell_formula_units_Z   1
loop_
 _symmetry_equiv_pos_site_id
 _symmetry_equiv_pos_as_xyz
  1  'x, y, z'
loop_
 _atom_site_type_symbol
 _atom_site_label
 _atom_site_symmetry_multiplicity
 _atom_site_fract_x
 _atom_site_fract_y
 _atom_site_fract_z
 _atom_site_occupancy
  Al  Al0  1  0.00631784  0.16565431  0.83368434  1
  Al  Al1  1  0.49860893  0.83487682  0.16665071  1
  Al  Al2  1  0.49965012  0.33622020  -0.00030596  1
  Al  Al3  1  0.00027331  0.16811959  0.16682443  1
  Al  Al4  1  1.00050145  0.66808423  0.33294606  1
  Al  Al5  1  0.00610982  0.16577082  0.49983722  1
  Al  Al6  1  0.00794363  0.66353928  0.66665974  1
  Al  Al7  1  1.00052049  0.66797486  0.00052859  1
  Al  Al8  1  0.49972991  0.33631129  0.33362751  1
  Al  Al9  1  0.49953215  0.83047951  0.50066672  1
  Al  Al10  1  0.49954579  0.83055517  0.83274152  1
  Si  Si11  1  0.50259795  0.33140109  0.66668253  1
  N  N12  1  0.62068528  0.16947194  0.16666854  1
  N  N13  1  0.62043918  0.66916191  0.33555127  1
  N  N14  1  0.62021160  0.17380409  0.51084538  1
  N  N15  1  0.62077344  0.64472294  0.66669987  1
  N  N16  1  0.62011598  0.17392155  0.82256673  1
  N  N17  1  0.62046347  0.66908610  0.99776041  1
  N  N18  1  0.12077773  0.83466709  0.16672677  1
  N  N19  1  0.12162974  0.33333773  0.33549462  1
  N  N20  1  0.12248992  0.83386512  0.50227508  1
  N  N21  1  0.14766031  0.33131077  0.66672365  1
  N  N22  1  0.12244738  0.83372414  0.83111054  1
  N  N23  1  0.12153571  0.33321572  0.99808349  1
