# generated using pymatgen
data_MnAl11N12
_symmetry_space_group_name_H-M   'P 1'
_cell_length_a   5.02976515
_cell_length_b   5.43845496
_cell_length_c   9.41837055
_cell_angle_alpha   89.99557218
_cell_angle_beta   90.00079634
_cell_angle_gamma   89.99088218
_symmetry_Int_Tables_number   1
_chemical_formula_structural   MnAl11N12
_chemical_formula_sum   'Mn1 Al11 N12'
_cell_volume   257.63152860
_cell_formula_units_Z   1
loop_
 _symmetry_equiv_pos_site_id
 _symmetry_equiv_pos_as_xyz
  1  'x, y, z'
loop_
 _atom_site_type_symbol
 _atom_site_label
 _atom_site_symmetry_multiplicity
 _atom_site_fract_x
 _atom_site_fract_y
 _atom_site_fract_z
 _atom_site_occupancy
  Mn  Mn0  1  0.50290073  0.33493226  0.66678447  1
  Al  Al1  1  0.00168895  0.16676683  0.83602993  1
  Al  Al2  1  0.50379860  0.83189569  0.16672364  1
  Al  Al3  1  0.50217137  0.33334068  0.00342742  1
  Al  Al4  1  0.00320709  0.16357088  0.16670985  1
  Al  Al5  1  0.00321819  0.66518218  0.33199089  1
  Al  Al6  1  0.00149505  0.16682988  0.49735510  1
  Al  Al7  1  0.00189958  0.67227299  0.66672925  1
  Al  Al8  1  0.00325644  0.66526404  0.00146816  1
  Al  Al9  1  0.50198540  0.33327837  0.32998702  1
  Al  Al10  1  0.50097824  0.83334943  0.49658290  1
  Al  Al11  1  0.50101250  0.83334099  0.83684021  1
  N  N12  1  0.62538231  0.16410619  0.16667214  1
  N  N13  1  0.62512920  0.66482067  0.33226368  1
  N  N14  1  0.62298111  0.16364882  0.49371979  1
  N  N15  1  0.62324278  0.67945197  0.66676022  1
  N  N16  1  0.62309556  0.16370423  0.83966945  1
  N  N17  1  0.62517167  0.66488841  0.00120229  1
  N  N18  1  0.12609103  0.83215769  0.16674329  1
  N  N19  1  0.12380231  0.33274028  0.33188446  1
  N  N20  1  0.12264019  0.83363794  0.49835104  1
  N  N21  1  0.10844635  0.33437950  0.66667626  1
  N  N22  1  0.12271064  0.83366432  0.83504090  1
  N  N23  1  0.12393603  0.33269152  0.00154766  1
