# generated using pymatgen
data_Al11VN12
_symmetry_space_group_name_H-M   'P 1'
_cell_length_a   5.03268135
_cell_length_b   5.43626905
_cell_length_c   9.42403254
_cell_angle_alpha   89.99875420
_cell_angle_beta   90.00294431
_cell_angle_gamma   89.99063835
_symmetry_Int_Tables_number   1
_chemical_formula_structural   Al11VN12
_chemical_formula_sum   'Al11 V1 N12'
_cell_volume   257.83219535
_cell_formula_units_Z   1
loop_
 _symmetry_equiv_pos_site_id
 _symmetry_equiv_pos_as_xyz
  1  'x, y, z'
loop_
 _atom_site_type_symbol
 _atom_site_label
 _atom_site_symmetry_multiplicity
 _atom_site_fract_x
 _atom_site_fract_y
 _atom_site_fract_z
 _atom_site_occupancy
  Al  Al0  1  0.00458601  0.16470132  0.83681489  1
  Al  Al1  1  0.50082740  0.83521568  0.16664552  1
  Al  Al2  1  0.50098210  0.33558859  0.00323495  1
  Al  Al3  1  0.00088513  0.16633134  0.16668897  1
  Al  Al4  1  0.00149545  0.66637468  0.33211354  1
  Al  Al5  1  0.00452139  0.16475731  0.49651865  1
  Al  Al6  1  0.00522360  0.67288030  0.66664957  1
  Al  Al7  1  0.00147834  0.66633443  0.00126513  1
  Al  Al8  1  0.50090588  0.33571934  0.33006937  1
  Al  Al9  1  0.50133840  0.83068072  0.49675108  1
  Al  Al10  1  0.50140521  0.83045337  0.83647808  1
  V  V11  1  0.50651853  0.32939280  0.66680088  1
  N  N12  1  0.62285221  0.16710059  0.16668352  1
  N  N13  1  0.62337431  0.66597461  0.33243675  1
  N  N14  1  0.62553511  0.16044388  0.49212722  1
  N  N15  1  0.62645597  0.68182272  0.66657492  1
  N  N16  1  0.62562268  0.16023690  0.84124129  1
  N  N17  1  0.62344125  0.66585563  0.00084681  1
  N  N18  1  0.12237304  0.83394351  0.16669707  1
  N  N19  1  0.12354080  0.33419719  0.33298558  1
  N  N20  1  0.12488209  0.83267833  0.49952858  1
  N  N21  1  0.10354360  0.33324317  0.66665732  1
  N  N22  1  0.12490720  0.83261437  0.83378480  1
  N  N23  1  0.12356697  0.33414173  0.00037301  1
