# generated using pymatgen
data_NbAl15N16
_symmetry_space_group_name_H-M   'P 1'
_cell_length_a   6.30908106
_cell_length_b   6.30914941
_cell_length_c   10.07732028
_cell_angle_alpha   90.00168117
_cell_angle_beta   90.00057036
_cell_angle_gamma   120.00484201
_symmetry_Int_Tables_number   1
_chemical_formula_structural   NbAl15N16
_chemical_formula_sum   'Nb1 Al15 N16'
_cell_volume   347.36928949
_cell_formula_units_Z   1
loop_
 _symmetry_equiv_pos_site_id
 _symmetry_equiv_pos_as_xyz
  1  'x, y, z'
loop_
 _atom_site_type_symbol
 _atom_site_label
 _atom_site_symmetry_multiplicity
 _atom_site_fract_x
 _atom_site_fract_y
 _atom_site_fract_z
 _atom_site_occupancy
  Nb  Nb0  1  0.16671595  0.33339696  0.24758042  1
  Al  Al1  1  0.33517672  0.16490933  0.99324516  1
  Al  Al2  1  0.16674364  0.33342656  0.75115330  1
  Al  Al3  1  0.33608145  0.16410764  0.50598407  1
  Al  Al4  1  0.16367700  0.83177411  0.25151550  1
  Al  Al5  1  0.33518563  0.67030952  0.99325470  1
  Al  Al6  1  0.16415806  0.83207473  0.75064831  1
  Al  Al7  1  0.33586773  0.67183861  0.50605848  1
  Al  Al8  1  0.66823796  0.33635778  0.25148161  1
  Al  Al9  1  0.82981453  0.16498073  0.99326817  1
  Al  Al10  1  0.66800713  0.33602662  0.75067403  1
  Al  Al11  1  0.82822482  0.16414247  0.50607736  1
  Al  Al12  1  0.66832960  0.83180297  0.25154746  1
  Al  Al13  1  0.83346516  0.66680637  -0.00099644  1
  Al  Al14  1  0.66810228  0.83205438  0.75068736  1
  Al  Al15  1  0.83329349  0.66678597  0.50054766  1
  N  N16  1  0.16675926  0.33327155  0.45365581  1
  N  N17  1  0.34387748  0.15610918  0.18467967  1
  N  N18  1  0.16674937  0.33339441  0.94293400  1
  N  N19  1  0.33361218  0.16652678  0.69406640  1
  N  N20  1  0.16751874  0.83377839  0.44049569  1
  N  N21  1  0.34401666  0.68781741  0.18468350  1
  N  N22  1  0.16400262  0.83202047  0.93999808  1
  N  N23  1  0.33366323  0.66716990  0.69410786  1
  N  N24  1  0.66640587  0.33256424  0.44048402  1
  N  N25  1  0.81225679  0.15609635  0.18466919  1
  N  N26  1  0.66812068  0.33621518  0.94002377  1
  N  N27  1  0.83294830  0.16649469  0.69413414  1
  N  N28  1  0.66618061  0.83384412  0.44051599  1
  N  N29  1  0.83340814  0.66665855  0.19017669  1
  N  N30  1  0.66814010  0.83203799  0.94004282  1
  N  N31  1  0.83341370  0.66670580  0.68891467  1
