# generated using pymatgen
data_TiNbN2
_symmetry_space_group_name_H-M   'P 1'
_cell_length_a   7.17148098
_cell_length_b   7.17165190
_cell_length_c   4.28280026
_cell_angle_alpha   90.00446218
_cell_angle_beta   89.99194315
_cell_angle_gamma   119.99380162
_symmetry_Int_Tables_number   1
_chemical_formula_structural   TiNbN2
_chemical_formula_sum   'Ti4 Nb4 N8'
_cell_volume   190.77155589
_cell_formula_units_Z   4
loop_
 _symmetry_equiv_pos_site_id
 _symmetry_equiv_pos_as_xyz
  1  'x, y, z'
loop_
 _atom_site_type_symbol
 _atom_site_label
 _atom_site_symmetry_multiplicity
 _atom_site_fract_x
 _atom_site_fract_y
 _atom_site_fract_z
 _atom_site_occupancy
  Ti  Ti0  1  0.16157678  0.83063846  0.44126989  1
  Ti  Ti1  1  0.66951619  0.33873215  0.44120614  1
  Ti  Ti2  1  0.66900558  0.83085726  0.44099850  1
  Ti  Ti3  1  0.83346019  0.66649513  0.94122498  1
  Nb  Nb4  1  0.16660084  0.33328604  0.44151004  1
  Nb  Nb5  1  0.33632070  0.16366753  0.93995527  1
  Nb  Nb6  1  0.33643697  0.67272990  0.94042685  1
  Nb  Nb7  1  0.82738755  0.16355476  0.94183136  1
  N  N8  1  0.16689065  0.33418150  0.94067183  1
  N  N9  1  0.34361117  0.15671827  0.44238853  1
  N  N10  1  0.15267842  0.82627167  0.94150747  1
  N  N11  1  0.34266296  0.68559899  0.44145580  1
  N  N12  1  0.67367522  0.34728171  0.94114472  1
  N  N13  1  0.81343075  0.15687059  0.44033511  1
  N  N14  1  0.67363816  0.82595553  0.94097451  1
  N  N15  1  0.83330051  0.66689330  0.44102789  1
