# generated using pymatgen
data_Al3MoN4
_symmetry_space_group_name_H-M   'P 1'
_cell_length_a   6.43154767
_cell_length_b   6.43137144
_cell_length_c   5.20670130
_cell_angle_alpha   89.55954887
_cell_angle_beta   90.44144223
_cell_angle_gamma   122.38091685
_symmetry_Int_Tables_number   1
_chemical_formula_structural   Al3MoN4
_chemical_formula_sum   'Al6 Mo2 N8'
_cell_volume   181.87286698
_cell_formula_units_Z   2
loop_
 _symmetry_equiv_pos_site_id
 _symmetry_equiv_pos_as_xyz
  1  'x, y, z'
loop_
 _atom_site_type_symbol
 _atom_site_label
 _atom_site_symmetry_multiplicity
 _atom_site_fract_x
 _atom_site_fract_y
 _atom_site_fract_z
 _atom_site_occupancy
  Al  Al0  1  0.17046746  0.32926114  0.49947749  1
  Al  Al1  1  0.33361734  0.16618518  0.01111901  1
  Al  Al2  1  0.16571456  0.83423312  0.50043033  1
  Al  Al3  1  0.66558329  0.33430773  0.50075684  1
  Al  Al4  1  0.67052370  0.82931018  0.49943757  1
  Al  Al5  1  0.83367271  0.66605909  0.01127490  1
  Mo  Mo6  1  0.32911715  0.67159732  -0.00506585  1
  Mo  Mo7  1  0.82849335  0.17049609  -0.00488211  1
  N  N8  1  0.18385281  0.31641158  0.85891259  1
  N  N9  1  0.33213893  0.16772300  0.37859161  1
  N  N10  1  0.15363663  0.84611958  0.87038695  1
  N  N11  1  0.33103523  0.66878892  0.41381568  1
  N  N12  1  0.65378098  0.34603566  0.87054942  1
  N  N13  1  0.83091628  0.16892149  0.41422596  1
  N  N14  1  0.68384597  0.81597310  0.85872393  1
  N  N15  1  0.83220767  0.66777034  0.37867057  1
