# generated using pymatgen
data_Al3FeN4
_symmetry_space_group_name_H-M   'P 1'
_cell_length_a   4.04503873
_cell_length_b   4.04369419
_cell_length_c   4.04413291
_cell_angle_alpha   89.99529020
_cell_angle_beta   89.99228953
_cell_angle_gamma   90.00291803
_symmetry_Int_Tables_number   1
_chemical_formula_structural   Al3FeN4
_chemical_formula_sum   'Al3 Fe1 N4'
_cell_volume   66.14947506
_cell_formula_units_Z   1
loop_
 _symmetry_equiv_pos_site_id
 _symmetry_equiv_pos_as_xyz
  1  'x, y, z'
loop_
 _atom_site_type_symbol
 _atom_site_label
 _atom_site_symmetry_multiplicity
 _atom_site_fract_x
 _atom_site_fract_y
 _atom_site_fract_z
 _atom_site_occupancy
  Al  Al0  1  0.00528419  0.00143108  0.99694034  1
  Al  Al1  1  0.00413513  0.50215899  0.49599237  1
  Al  Al2  1  0.50408702  0.00286800  0.49768672  1
  Fe  Fe3  1  0.50054516  0.49842166  0.00001762  1
  N  N4  1  0.49689311  0.49837239  0.50194722  1
  N  N5  1  0.49594589  0.99908995  1.00194924  1
  N  N6  1  -0.00253532  0.49913809  1.00230337  1
  N  N7  1  -0.00325403  -0.00170727  0.50203576  1
