# generated using pymatgen
data_ZrTi15N16
_symmetry_space_group_name_H-M   'P 1'
_cell_length_a   7.01491611
_cell_length_b   7.01519081
_cell_length_c   8.55144179
_cell_angle_alpha   89.99923520
_cell_angle_beta   90.00039932
_cell_angle_gamma   119.99861516
_symmetry_Int_Tables_number   1
_chemical_formula_structural   ZrTi15N16
_chemical_formula_sum   'Zr1 Ti15 N16'
_cell_volume   364.45004284
_cell_formula_units_Z   1
loop_
 _symmetry_equiv_pos_site_id
 _symmetry_equiv_pos_as_xyz
  1  'x, y, z'
loop_
 _atom_site_type_symbol
 _atom_site_label
 _atom_site_symmetry_multiplicity
 _atom_site_fract_x
 _atom_site_fract_y
 _atom_site_fract_z
 _atom_site_occupancy
  Zr  Zr0  1  0.16638831  0.33321835  0.22034441  1
  Ti  Ti1  1  0.33636694  0.16337396  0.96769282  1
  Ti  Ti2  1  0.16641910  0.33321619  0.72048143  1
  Ti  Ti3  1  0.33644900  0.16341901  0.47320995  1
  Ti  Ti4  1  0.16281086  0.83131497  0.22041255  1
  Ti  Ti5  1  0.33683542  0.67326610  0.96763883  1
  Ti  Ti6  1  0.16646720  0.83317611  0.72061651  1
  Ti  Ti7  1  0.33628953  0.67279830  0.47327890  1
  Ti  Ti8  1  0.66853131  0.33704245  0.22044018  1
  Ti  Ti9  1  0.82681085  0.16318522  0.96768331  1
  Ti  Ti10  1  0.66677120  0.33359405  0.72053842  1
  Ti  Ti11  1  0.82716590  0.16379275  0.47333616  1
  Ti  Ti12  1  0.66846486  0.83156089  0.22055264  1
  Ti  Ti13  1  0.83358809  0.66671821  0.96890039  1
  Ti  Ti14  1  0.66678606  0.83344925  0.72047850  1
  Ti  Ti15  1  0.83364148  0.66661205  0.47195206  1
  N  N16  1  0.16716135  0.33342720  0.47566590  1
  N  N17  1  0.34228386  0.15755458  0.22042908  1
  N  N18  1  0.16656900  0.33351995  0.96576308  1
  N  N19  1  0.33253013  0.16708187  0.72068365  1
  N  N20  1  0.16598758  0.83298181  0.47143464  1
  N  N21  1  0.34239653  0.68457772  0.22053407  1
  N  N22  1  0.16554771  0.83231872  0.96972154  1
  N  N23  1  0.33278048  0.66511663  0.72036542  1
  N  N24  1  0.66671041  0.33421453  0.47142841  1
  N  N25  1  0.81522781  0.15767713  0.22061675  1
  N  N26  1  0.66736074  0.33463747  0.96971320  1
  N  N27  1  0.83479463  0.16745363  0.72031711  1
  N  N28  1  0.66715600  0.83269918  0.47125746  1
  N  N29  1  0.83343307  0.66687643  0.22075683  1
  N  N30  1  0.66717943  0.83284970  0.96965666  1
  N  N31  1  0.83329224  0.66684264  0.72012133  1
