# generated using pymatgen
data_ZrTaTiNbCoC5
_symmetry_space_group_name_H-M   'P 1'
_cell_length_a   6.29237048
_cell_length_b   7.00581257
_cell_length_c   10.39108808
_cell_angle_alpha   101.40381311
_cell_angle_beta   90.20460813
_cell_angle_gamma   102.95989561
_symmetry_Int_Tables_number   1
_chemical_formula_structural   ZrTaTiNbCoC5
_chemical_formula_sum   'Zr4 Ta4 Ti4 Nb4 Co4 C20'
_cell_volume   437.04007869
_cell_formula_units_Z   4
loop_
 _symmetry_equiv_pos_site_id
 _symmetry_equiv_pos_as_xyz
  1  'x, y, z'
loop_
 _atom_site_type_symbol
 _atom_site_label
 _atom_site_symmetry_multiplicity
 _atom_site_fract_x
 _atom_site_fract_y
 _atom_site_fract_z
 _atom_site_occupancy
  Zr  Zr0  1  0.25259841  -0.00113346  0.49887923  1
  Zr  Zr1  1  0.30037201  0.21123533  0.80884455  1
  Zr  Zr2  1  0.80295161  0.20778621  0.80713183  1
  Zr  Zr3  1  0.89935803  0.59053266  0.40118605  1
  Ta  Ta4  1  0.49496965  0.00629680  0.00691467  1
  Ta  Ta5  1  0.75377079  0.00533028  0.49898677  1
  Ta  Ta6  1  0.05546363  0.19888020  0.28554306  1
  Ta  Ta7  1  0.45132706  0.79011330  0.70326482  1
  Ti  Ti8  1  0.54752207  0.20193369  0.29681089  1
  Ti  Ti9  1  0.84681237  0.40078520  0.09960212  1
  Ti  Ti10  1  0.59746850  0.40571220  0.60424284  1
  Ti  Ti11  1  0.40077202  0.59226156  0.39307475  1
  Nb  Nb12  1  0.19775309  0.79118721  0.18982710  1
  Nb  Nb13  1  0.69121101  0.78941236  0.19111387  1
  Nb  Nb14  1  0.15164113  0.60531193  0.90167802  1
  Nb  Nb15  1  0.94680352  0.79278861  0.70959572  1
  Co  Co16  1  0.98483131  0.00068863  1.00404757  1
  Co  Co17  1  0.35168213  0.39899030  0.09994929  1
  Co  Co18  1  0.13001136  0.39062610  0.57942460  1
  Co  Co19  1  0.68396598  0.62269715  0.91664313  1
  C  C20  1  0.57454030  0.32400387  0.96612150  1
  C  C21  1  0.08030785  0.30111895  0.97087888  1
  C  C22  1  0.82744713  0.29362682  0.45151116  1
  C  C23  1  0.32419764  0.31030651  0.44847566  1
  C  C24  1  0.60919485  0.48779912  0.24305897  1
  C  C25  1  0.13707218  0.49571605  0.24120332  1
  C  C26  1  0.91856575  0.70506014  0.04253463  1
  C  C27  1  0.43006731  0.69389341  0.04254023  1
  C  C28  1  0.84595016  0.51244836  0.76300770  1
  C  C29  1  0.35187296  0.49412775  0.73387596  1
  C  C30  1  0.67057746  0.69927852  0.55230222  1
  C  C31  1  0.17923060  0.67869495  0.55458142  1
  C  C32  1  0.97233769  0.90063857  0.34231591  1
  C  C33  1  0.47820662  0.89788698  0.34357743  1
  C  C34  1  0.77731641  0.10275383  0.14555291  1
  C  C35  1  0.27394387  0.10269897  0.14677623  1
  C  C36  1  0.72794999  0.89009229  0.86375706  1
  C  C37  1  0.22356826  0.90025697  0.85599707  1
  C  C38  1  0.02255682  0.10933386  0.64556570  1
  C  C39  1  0.53172748  0.10004931  0.64951900  1
