# generated using pymatgen
data_NbAl11N12
_symmetry_space_group_name_H-M   'P 1'
_cell_length_a   5.03333765
_cell_length_b   5.47664528
_cell_length_c   9.51302107
_cell_angle_alpha   90.00393057
_cell_angle_beta   89.99833432
_cell_angle_gamma   90.00276894
_symmetry_Int_Tables_number   1
_chemical_formula_structural   NbAl11N12
_chemical_formula_sum   'Nb1 Al11 N12'
_cell_volume   262.23408172
_cell_formula_units_Z   1
loop_
 _symmetry_equiv_pos_site_id
 _symmetry_equiv_pos_as_xyz
  1  'x, y, z'
loop_
 _atom_site_type_symbol
 _atom_site_label
 _atom_site_symmetry_multiplicity
 _atom_site_fract_x
 _atom_site_fract_y
 _atom_site_fract_z
 _atom_site_occupancy
  Nb  Nb0  1  0.52264231  0.33214841  0.66671108  1
  Al  Al1  1  0.00777282  0.16453260  0.84049566  1
  Al  Al2  1  0.50210985  0.83133708  0.16659949  1
  Al  Al3  1  0.50027001  0.33487802  0.00836470  1
  Al  Al4  1  0.00233493  0.16364765  0.16665021  1
  Al  Al5  1  0.00349621  0.66489081  0.33025973  1
  Al  Al6  1  0.00779840  0.16448033  0.49279936  1
  Al  Al7  1  0.00632272  0.67930808  0.66659969  1
  Al  Al8  1  0.00346362  0.66495836  0.00294403  1
  Al  Al9  1  0.50033544  0.33507544  0.32486225  1
  Al  Al10  1  0.50146703  0.83141813  0.49226873  1
  Al  Al11  1  0.50141937  0.83126567  0.84101383  1
  N  N12  1  0.62356608  0.16071612  0.16662868  1
  N  N13  1  0.62426134  0.66312718  0.33081496  1
  N  N14  1  0.62591197  0.15875055  0.48395609  1
  N  N15  1  0.62570655  0.69918456  0.66661093  1
  N  N16  1  0.62614595  0.15840691  0.84929295  1
  N  N17  1  0.62424325  0.66290886  0.00241354  1
  N  N18  1  0.12295105  0.83270999  0.16659669  1
  N  N19  1  0.12279468  0.33412651  0.33050330  1
  N  N20  1  0.12357119  0.83253003  0.49723789  1
  N  N21  1  0.07422261  0.33299819  0.66662868  1
  N  N22  1  0.12354782  0.83256348  0.83597554  1
  N  N23  1  0.12276787  0.33419340  0.00280389  1
