# generated using pymatgen
data_ZrTaTiNbCuC5
_symmetry_space_group_name_H-M   'P 1'
_cell_length_a   6.32812506
_cell_length_b   7.13515630
_cell_length_c   10.49163538
_cell_angle_alpha   102.41767152
_cell_angle_beta   89.39989031
_cell_angle_gamma   103.05211726
_symmetry_Int_Tables_number   1
_chemical_formula_structural   ZrTaTiNbCuC5
_chemical_formula_sum   'Zr4 Ta4 Ti4 Nb4 Cu4 C20'
_cell_volume   450.32423189
_cell_formula_units_Z   4
loop_
 _symmetry_equiv_pos_site_id
 _symmetry_equiv_pos_as_xyz
  1  'x, y, z'
loop_
 _atom_site_type_symbol
 _atom_site_label
 _atom_site_symmetry_multiplicity
 _atom_site_fract_x
 _atom_site_fract_y
 _atom_site_fract_z
 _atom_site_occupancy
  Zr  Zr0  1  0.25048762  0.00730384  0.49881347  1
  Zr  Zr1  1  0.30161673  0.21471310  0.81081073  1
  Zr  Zr2  1  0.80283390  0.21468319  0.80220899  1
  Zr  Zr3  1  0.90198557  0.58936164  0.40408373  1
  Ta  Ta4  1  0.50465875  0.00328441  0.00383801  1
  Ta  Ta5  1  0.75075712  0.00488591  0.49692578  1
  Ta  Ta6  1  0.05362070  0.19497296  0.28723619  1
  Ta  Ta7  1  0.44619099  0.78896114  0.70017651  1
  Ti  Ti8  1  0.54695083  0.20376961  0.29483738  1
  Ti  Ti9  1  0.84708272  0.39756582  0.09822374  1
  Ti  Ti10  1  0.59861774  0.40678458  0.60292732  1
  Ti  Ti11  1  0.39768319  0.58657340  0.39519865  1
  Nb  Nb12  1  0.20306775  0.78730998  0.19239517  1
  Nb  Nb13  1  0.69487730  0.78305861  0.18919240  1
  Nb  Nb14  1  0.14917278  0.60648021  0.90339677  1
  Nb  Nb15  1  0.94412782  0.79566602  0.71245657  1
  Cu  Cu16  1  0.98535619  0.01995748  0.99785329  1
  Cu  Cu17  1  0.34547988  0.39293827  0.09987058  1
  Cu  Cu18  1  0.12421318  0.40838383  0.59756046  1
  Cu  Cu19  1  0.66875128  0.61657803  0.90951486  1
  C  C20  1  0.57404928  0.30179356  0.96630365  1
  C  C21  1  0.07629910  0.31545782  0.96240259  1
  C  C22  1  0.81285690  0.28652068  0.44613505  1
  C  C23  1  0.33328392  0.30900203  0.44303145  1
  C  C24  1  0.61598017  0.49292098  0.24755696  1
  C  C25  1  0.13325650  0.48981637  0.24528705  1
  C  C26  1  0.92469559  0.68823712  0.05213515  1
  C  C27  1  0.43019202  0.70398198  0.04454468  1
  C  C28  1  0.86111231  0.51133177  0.75220796  1
  C  C29  1  0.37160812  0.50233411  0.74374607  1
  C  C30  1  0.66905909  0.69962966  0.55161560  1
  C  C31  1  0.18216438  0.69403968  0.55314143  1
  C  C32  1  0.96969629  0.90038535  0.34372598  1
  C  C33  1  0.47920211  0.89259347  0.34615136  1
  C  C34  1  0.77753540  0.09931361  0.14873759  1
  C  C35  1  0.27942134  0.08960787  0.15429380  1
  C  C36  1  0.72209525  0.89892740  0.85301736  1
  C  C37  1  0.22494215  0.90122844  0.85426983  1
  C  C38  1  0.01672089  0.09774050  0.64695783  1
  C  C39  1  0.52888520  0.10162805  0.64726114  1
