# generated using pymatgen
data_TaAl11N12
_symmetry_space_group_name_H-M   'P 1'
_cell_length_a   5.04286588
_cell_length_b   5.46686651
_cell_length_c   9.49473434
_cell_angle_alpha   89.99348069
_cell_angle_beta   90.00252173
_cell_angle_gamma   90.00885936
_symmetry_Int_Tables_number   1
_chemical_formula_structural   TaAl11N12
_chemical_formula_sum   'Ta1 Al11 N12'
_cell_volume   261.75723618
_cell_formula_units_Z   1
loop_
 _symmetry_equiv_pos_site_id
 _symmetry_equiv_pos_as_xyz
  1  'x, y, z'
loop_
 _atom_site_type_symbol
 _atom_site_label
 _atom_site_symmetry_multiplicity
 _atom_site_fract_x
 _atom_site_fract_y
 _atom_site_fract_z
 _atom_site_occupancy
  Ta  Ta0  1  0.51485968  0.33090194  0.66662693  1
  Al  Al1  1  0.00685926  0.16429299  0.83996870  1
  Al  Al2  1  0.50077462  0.83410180  0.16668942  1
  Al  Al3  1  0.49977137  0.33638247  0.00670255  1
  Al  Al4  1  0.00179724  0.16524369  0.16667297  1
  Al  Al5  1  0.00261034  0.66519584  0.33058970  1
  Al  Al6  1  0.00688554  0.16415808  0.49339180  1
  Al  Al7  1  0.00677710  0.67868718  0.66668576  1
  Al  Al8  1  0.00259282  0.66533661  0.00279706  1
  Al  Al9  1  0.49987733  0.33628872  0.32665216  1
  Al  Al10  1  0.49992764  0.82878322  0.49362513  1
  Al  Al11  1  0.49977116  0.82890476  0.83979237  1
  N  N12  1  0.62305295  0.16491263  0.16664181  1
  N  N13  1  0.62384608  0.66508270  0.33134645  1
  N  N14  1  0.62436453  0.16007182  0.48968461  1
  N  N15  1  0.62481697  0.68663989  0.66674457  1
  N  N16  1  0.62436167  0.16018317  0.84379174  1
  N  N17  1  0.62380399  0.66515489  0.00201486  1
  N  N18  1  0.12241921  0.83364003  0.16670522  1
  N  N19  1  0.12321350  0.33383728  0.33138104  1
  N  N20  1  0.12358346  0.83282531  0.49829228  1
  N  N21  1  0.09429379  0.33354940  0.66668190  1
  N  N22  1  0.12352052  0.83298411  0.83505388  1
  N  N23  1  0.12314185  0.33394506  0.00197154  1
