# generated using pymatgen
data_ZrTaTiNbZnC5
_symmetry_space_group_name_H-M   'P 1'
_cell_length_a   6.34579812
_cell_length_b   7.16083522
_cell_length_c   10.52475163
_cell_angle_alpha   102.16733799
_cell_angle_beta   89.75205076
_cell_angle_gamma   102.89210320
_symmetry_Int_Tables_number   1
_chemical_formula_structural   ZrTaTiNbZnC5
_chemical_formula_sum   'Zr4 Ta4 Ti4 Nb4 Zn4 C20'
_cell_volume   455.27116181
_cell_formula_units_Z   4
loop_
 _symmetry_equiv_pos_site_id
 _symmetry_equiv_pos_as_xyz
  1  'x, y, z'
loop_
 _atom_site_type_symbol
 _atom_site_label
 _atom_site_symmetry_multiplicity
 _atom_site_fract_x
 _atom_site_fract_y
 _atom_site_fract_z
 _atom_site_occupancy
  Zr  Zr0  1  0.25303226  0.00600567  0.49824619  1
  Zr  Zr1  1  0.30231251  0.21293722  0.80830230  1
  Zr  Zr2  1  0.80318641  0.21002596  0.80136943  1
  Zr  Zr3  1  0.90072535  0.59215666  0.40381189  1
  Ta  Ta4  1  0.50338996  0.00478381  0.00651031  1
  Ta  Ta5  1  0.74936980  0.00253388  0.49748229  1
  Ta  Ta6  1  0.05267207  0.19557486  0.29099297  1
  Ta  Ta7  1  0.44638138  0.79098623  0.69960708  1
  Ti  Ti8  1  0.55060040  0.20444352  0.29799323  1
  Ti  Ti9  1  0.84854290  0.39824822  0.09762307  1
  Ti  Ti10  1  0.59869850  0.40946994  0.60414137  1
  Ti  Ti11  1  0.39831417  0.58820453  0.39441275  1
  Nb  Nb12  1  0.20067853  0.79018615  0.19408878  1
  Nb  Nb13  1  0.69477467  0.78649531  0.19207697  1
  Nb  Nb14  1  0.14914271  0.60709550  0.90152902  1
  Nb  Nb15  1  0.94423571  0.79584359  0.70796771  1
  Zn  Zn16  1  0.99672032  0.00939663  0.99911427  1
  Zn  Zn17  1  0.34761637  0.39586303  0.10172570  1
  Zn  Zn18  1  0.10122786  0.39679084  0.59479786  1
  Zn  Zn19  1  0.65394702  0.60343408  0.90358583  1
  C  C20  1  0.58027059  0.30228466  0.96331183  1
  C  C21  1  0.07315926  0.31393942  0.96064061  1
  C  C22  1  0.81571805  0.28803682  0.44748873  1
  C  C23  1  0.33523283  0.30988927  0.44334539  1
  C  C24  1  0.61841490  0.49495926  0.24894036  1
  C  C25  1  0.13042441  0.49278049  0.24908527  1
  C  C26  1  0.92594123  0.69126870  0.05174784  1
  C  C27  1  0.42693317  0.70636673  0.04735285  1
  C  C28  1  0.87091598  0.50758900  0.74597514  1
  C  C29  1  0.37913848  0.50543723  0.74628598  1
  C  C30  1  0.66703021  0.70102421  0.55201575  1
  C  C31  1  0.18415787  0.69652641  0.55206331  1
  C  C32  1  0.97028694  0.90199539  0.34541312  1
  C  C33  1  0.48064469  0.89379333  0.34637554  1
  C  C34  1  0.77566826  0.10256598  0.15175009  1
  C  C35  1  0.27706253  0.09217651  0.15396614  1
  C  C36  1  0.72171634  0.89876625  0.85236236  1
  C  C37  1  0.22570730  0.90047580  0.85295156  1
  C  C38  1  0.01848755  0.09669098  0.64597342  1
  C  C39  1  0.52959522  0.10300457  0.64715816  1
