# generated using pymatgen
data_ZrTaTiNbAgC5
_symmetry_space_group_name_H-M   'P 1'
_cell_length_a   6.40418352
_cell_length_b   7.23892038
_cell_length_c   10.65170691
_cell_angle_alpha   102.42217368
_cell_angle_beta   89.57268661
_cell_angle_gamma   102.98813430
_symmetry_Int_Tables_number   1
_chemical_formula_structural   ZrTaTiNbAgC5
_chemical_formula_sum   'Zr4 Ta4 Ti4 Nb4 Ag4 C20'
_cell_volume   469.47455386
_cell_formula_units_Z   4
loop_
 _symmetry_equiv_pos_site_id
 _symmetry_equiv_pos_as_xyz
  1  'x, y, z'
loop_
 _atom_site_type_symbol
 _atom_site_label
 _atom_site_symmetry_multiplicity
 _atom_site_fract_x
 _atom_site_fract_y
 _atom_site_fract_z
 _atom_site_occupancy
  Zr  Zr0  1  0.25379411  0.00637087  0.49633053  1
  Zr  Zr1  1  0.29767473  0.20997093  0.80597313  1
  Zr  Zr2  1  0.79795618  0.21125370  0.79858376  1
  Zr  Zr3  1  0.90218456  0.59169582  0.40409734  1
  Ta  Ta4  1  0.50810944  -0.00026899  0.00225943  1
  Ta  Ta5  1  0.74770578  0.00027676  0.49800063  1
  Ta  Ta6  1  0.05350737  0.19598110  0.29263746  1
  Ta  Ta7  1  0.44095709  0.79170398  0.69708769  1
  Ti  Ti8  1  0.55646421  0.20444567  0.29834624  1
  Ti  Ti9  1  0.85033352  0.39912107  0.09853077  1
  Ti  Ti10  1  0.59392785  0.41191964  0.60507983  1
  Ti  Ti11  1  0.40122659  0.58785366  0.39317802  1
  Nb  Nb12  1  0.20564326  0.78858734  0.19560279  1
  Nb  Nb13  1  0.70009722  0.79280456  0.19914611  1
  Nb  Nb14  1  0.14722163  0.60739696  0.90026458  1
  Nb  Nb15  1  0.94075663  0.79926857  0.70771103  1
  Ag  Ag16  1  1.00225881  0.01160049  1.00191886  1
  Ag  Ag17  1  0.35100512  0.39224903  0.10288468  1
  Ag  Ag18  1  0.10046349  0.39946292  0.59400329  1
  Ag  Ag19  1  0.65629054  0.60889719  0.91030095  1
  C  C20  1  0.57775587  0.28529265  0.96313246  1
  C  C21  1  0.06761566  0.32762870  0.94956012  1
  C  C22  1  0.81041375  0.28154249  0.44519753  1
  C  C23  1  0.34405844  0.30839445  0.43691203  1
  C  C24  1  0.63138183  0.50122046  0.25309240  1
  C  C25  1  0.12811409  0.48898435  0.25331137  1
  C  C26  1  0.93132507  0.68283635  0.06161837  1
  C  C27  1  0.42518728  0.71681774  0.05001491  1
  C  C28  1  0.86180203  0.51331626  0.74755473  1
  C  C29  1  0.37235736  0.50341918  0.74156765  1
  C  C30  1  0.66644672  0.69913125  0.55123251  1
  C  C31  1  0.18751264  0.70917447  0.54793792  1
  C  C32  1  0.96876797  0.90369753  0.34682574  1
  C  C33  1  0.48313201  0.88919165  0.34814257  1
  C  C34  1  0.77511227  0.10306687  0.15466985  1
  C  C35  1  0.28463010  0.08318200  0.16470082  1
  C  C36  1  0.71095851  0.90518444  0.84296614  1
  C  C37  1  0.22808329  0.89894902  0.84850071  1
  C  C38  1  0.01286764  0.08264896  0.64633222  1
  C  C39  1  0.52634124  0.10514352  0.64453661  1
