# generated using pymatgen
data_ZrTaTiCoMoC5
_symmetry_space_group_name_H-M   'P 1'
_cell_length_a   6.25646228
_cell_length_b   6.98658834
_cell_length_c   10.31610374
_cell_angle_alpha   101.33346550
_cell_angle_beta   90.08764647
_cell_angle_gamma   103.03308954
_symmetry_Int_Tables_number   1
_chemical_formula_structural   ZrTaTiCoMoC5
_chemical_formula_sum   'Zr4 Ta4 Ti4 Co4 Mo4 C20'
_cell_volume   430.25156835
_cell_formula_units_Z   4
loop_
 _symmetry_equiv_pos_site_id
 _symmetry_equiv_pos_as_xyz
  1  'x, y, z'
loop_
 _atom_site_type_symbol
 _atom_site_label
 _atom_site_symmetry_multiplicity
 _atom_site_fract_x
 _atom_site_fract_y
 _atom_site_fract_z
 _atom_site_occupancy
  Zr  Zr0  1  0.25043492  -0.00499165  0.49786081  1
  Zr  Zr1  1  0.29837286  0.20913025  0.80951041  1
  Zr  Zr2  1  0.80801123  0.21490017  0.80777886  1
  Zr  Zr3  1  0.89904599  0.59201480  0.40000900  1
  Ta  Ta4  1  0.49666468  0.00619756  0.00930077  1
  Ta  Ta5  1  0.75574514  0.00466226  0.50064924  1
  Ta  Ta6  1  0.05106934  0.19097122  0.28633202  1
  Ta  Ta7  1  0.45256951  0.79226834  0.70319462  1
  Ti  Ti8  1  0.54710632  0.20075481  0.29516568  1
  Ti  Ti9  1  0.85263270  0.40693901  0.09986874  1
  Ti  Ti10  1  0.59264682  0.40468351  0.60114847  1
  Ti  Ti11  1  0.39868676  0.59243033  0.39081244  1
  Co  Co12  1  0.97991511  -0.00262069  0.00820777  1
  Co  Co13  1  0.35071744  0.40501468  0.09928375  1
  Co  Co14  1  0.12805118  0.39174195  0.57912373  1
  Co  Co15  1  0.69349261  0.62582496  0.92373558  1
  Mo  Mo16  1  0.19395667  0.78051979  0.17798312  1
  Mo  Mo17  1  0.66807413  0.78308737  0.19527593  1
  Mo  Mo18  1  0.16583506  0.60804607  0.89446124  1
  Mo  Mo19  1  0.94182279  0.78569792  0.71573092  1
  C  C20  1  0.57688287  0.32490725  0.96715485  1
  C  C21  1  0.08672309  0.31359149  0.97241431  1
  C  C22  1  0.82545633  0.29236929  0.45086307  1
  C  C23  1  0.32393338  0.30886333  0.44844181  1
  C  C24  1  0.60926261  0.49369070  0.24152719  1
  C  C25  1  0.13850221  0.49910669  0.23963714  1
  C  C26  1  0.92520980  0.71256992  0.04743604  1
  C  C27  1  0.43030775  0.68967196  0.04081681  1
  C  C28  1  0.85639488  0.51950750  0.76368789  1
  C  C29  1  0.34575545  0.49660989  0.73629439  1
  C  C30  1  0.67250186  0.69974165  0.55395952  1
  C  C31  1  0.17772707  0.67899501  0.55577091  1
  C  C32  1  0.96843194  0.89774042  0.33752231  1
  C  C33  1  0.47775603  0.89468686  0.33960785  1
  C  C34  1  0.77746450  0.09913439  0.14576290  1
  C  C35  1  0.27167096  0.09535392  0.14857137  1
  C  C36  1  0.73534165  0.89196614  0.86320124  1
  C  C37  1  0.21959477  0.89552377  0.85627573  1
  C  C38  1  0.02265382  0.10607076  0.64573369  1
  C  C39  1  0.53131978  0.10114105  0.64972394  1
