# generated using pymatgen
data_ZrTaTiNbPtC5
_symmetry_space_group_name_H-M   'P 1'
_cell_length_a   6.37462184
_cell_length_b   7.08847747
_cell_length_c   10.55658186
_cell_angle_alpha   101.19078436
_cell_angle_beta   90.57337099
_cell_angle_gamma   102.81938748
_symmetry_Int_Tables_number   1
_chemical_formula_structural   ZrTaTiNbPtC5
_chemical_formula_sum   'Zr4 Ta4 Ti4 Nb4 Pt4 C20'
_cell_volume   455.57721793
_cell_formula_units_Z   4
loop_
 _symmetry_equiv_pos_site_id
 _symmetry_equiv_pos_as_xyz
  1  'x, y, z'
loop_
 _atom_site_type_symbol
 _atom_site_label
 _atom_site_symmetry_multiplicity
 _atom_site_fract_x
 _atom_site_fract_y
 _atom_site_fract_z
 _atom_site_occupancy
  Zr  Zr0  1  0.25533690  0.00416271  0.49773180  1
  Zr  Zr1  1  0.30347378  0.20938585  0.80581731  1
  Zr  Zr2  1  0.80564625  0.20527031  0.80137196  1
  Zr  Zr3  1  0.89667373  0.59384018  0.40261601  1
  Ta  Ta4  1  0.49463648  1.00089120  0.00630074  1
  Ta  Ta5  1  0.74863681  1.00120629  0.49591360  1
  Ta  Ta6  1  0.05161862  0.19738596  0.28906974  1
  Ta  Ta7  1  0.45182710  0.78962135  0.69858990  1
  Ti  Ti8  1  0.54564375  0.20244999  0.29606595  1
  Ti  Ti9  1  0.84179098  0.40099063  0.09973953  1
  Ti  Ti10  1  0.60181006  0.40490614  0.60260662  1
  Ti  Ti11  1  0.39865063  0.59172273  0.39749319  1
  Nb  Nb12  1  0.19474258  0.79304317  0.19946539  1
  Nb  Nb13  1  0.69240636  0.79334400  0.19335465  1
  Nb  Nb14  1  0.15190503  0.61046628  0.90510606  1
  Nb  Nb15  1  0.95174831  0.79438499  0.70614829  1
  Pt  Pt16  1  0.98943578  0.01181586  0.01084206  1
  Pt  Pt17  1  0.35150925  0.41293308  0.10540402  1
  Pt  Pt18  1  0.09811857  0.38721635  0.58252501  1
  Pt  Pt19  1  0.66762053  0.59451822  0.89201164  1
  C  C20  1  0.57567482  0.31020372  0.96365355  1
  C  C21  1  0.07782197  0.30603964  0.96677632  1
  C  C22  1  0.81684940  0.28922742  0.44789866  1
  C  C23  1  0.33073601  0.30935208  0.44463597  1
  C  C24  1  0.61427040  0.49374311  0.24696066  1
  C  C25  1  0.12904708  0.49480626  0.24772903  1
  C  C26  1  0.91919931  0.69737676  0.04577043  1
  C  C27  1  0.41428623  0.70786209  0.05518660  1
  C  C28  1  0.87469785  0.50400671  0.74639045  1
  C  C29  1  0.39530621  0.50840906  0.75321557  1
  C  C30  1  0.66913880  0.69860560  0.55151087  1
  C  C31  1  0.18377561  0.68855296  0.55256805  1
  C  C32  1  0.96762742  0.90342429  0.34598534  1
  C  C33  1  0.47938806  0.89794184  0.34552926  1
  C  C34  1  0.77133368  0.10346362  0.15049504  1
  C  C35  1  0.27332976  0.09594679  0.15133706  1
  C  C36  1  0.72785548  0.89230927  0.85608398  1
  C  C37  1  0.23387921  0.89577121  0.84915813  1
  C  C38  1  0.02071566  0.10091766  0.64432099  1
  C  C39  1  0.53228345  0.10169207  0.64778323  1
