# generated using pymatgen
data_HfTaTiNbMoC5
_symmetry_space_group_name_H-M   'P 1'
_cell_length_a   7.06929959
_cell_length_b   4.46850568
_cell_length_c   7.07424621
_cell_angle_alpha   89.98406001
_cell_angle_beta   89.97717626
_cell_angle_gamma   90.00043529
_symmetry_Int_Tables_number   1
_chemical_formula_structural   HfTaTiNbMoC5
_chemical_formula_sum   'Hf2 Ta2 Ti2 Nb2 Mo2 C10'
_cell_volume   223.46978989
_cell_formula_units_Z   2
loop_
 _symmetry_equiv_pos_site_id
 _symmetry_equiv_pos_as_xyz
  1  'x, y, z'
loop_
 _atom_site_type_symbol
 _atom_site_label
 _atom_site_symmetry_multiplicity
 _atom_site_fract_x
 _atom_site_fract_y
 _atom_site_fract_z
 _atom_site_occupancy
  Hf  Hf0  1  0.59734098  1.00009299  0.20207502  1
  Hf  Hf1  1  0.90600215  0.50057719  0.30235216  1
  Ta  Ta2  1  0.39370943  0.99929383  0.79521682  1
  Ta  Ta3  1  0.69736449  0.49946247  0.89491180  1
  Ti  Ti4  1  0.49342340  0.49962072  0.49388105  1
  Ti  Ti5  1  0.20193892  1.00007924  0.39848033  1
  Nb  Nb6  1  0.80126061  -0.00027223  0.60719734  1
  Nb  Nb7  1  0.10316061  0.49963524  0.70784415  1
  Mo  Mo8  1  0.29106679  0.50864457  0.10604033  1
  Mo  Mo9  1  0.01949239  0.01126342  0.00252484  1
  C  C10  1  0.70080395  -0.00104762  0.89801478  1
  C  C11  1  0.49315687  -0.00046963  0.50380166  1
  C  C12  1  0.59166500  0.49933993  0.19758373  1
  C  C13  1  0.91069552  -0.00006713  0.29762620  1
  C  C14  1  -0.00048951  0.49369868  0.99621117  1
  C  C15  1  0.29410348  0.99317955  0.09791047  1
  C  C16  1  0.40169255  0.49878102  0.79821516  1
  C  C17  1  0.79289970  0.49975371  0.60352042  1
  C  C18  1  0.10128318  0.99900641  0.69857767  1
  C  C19  1  0.21024864  0.49894555  0.39667172  1
