# generated using pymatgen
data_HfTaTiNbVC5
_symmetry_space_group_name_H-M   'P 1'
_cell_length_a   7.01965436
_cell_length_b   4.44864826
_cell_length_c   7.01604593
_cell_angle_alpha   90.00163136
_cell_angle_beta   90.00892153
_cell_angle_gamma   90.00147733
_symmetry_Int_Tables_number   1
_chemical_formula_structural   HfTaTiNbVC5
_chemical_formula_sum   'Hf2 Ta2 Ti2 Nb2 V2 C10'
_cell_volume   219.09689133
_cell_formula_units_Z   2
loop_
 _symmetry_equiv_pos_site_id
 _symmetry_equiv_pos_as_xyz
  1  'x, y, z'
loop_
 _atom_site_type_symbol
 _atom_site_label
 _atom_site_symmetry_multiplicity
 _atom_site_fract_x
 _atom_site_fract_y
 _atom_site_fract_z
 _atom_site_occupancy
  Hf  Hf0  1  0.50028029  0.50009276  0.49793186  1
  Hf  Hf1  1  0.79957725  1.00025999  0.60802371  1
  Ta  Ta2  1  0.19843722  0.00013718  0.39283566  1
  Ta  Ta3  1  0.89934284  0.50004772  0.28439307  1
  Ti  Ti4  1  0.30333138  0.49993747  0.09391172  1
  Ti  Ti5  1  0.60143668  0.00025181  0.19022104  1
  Nb  Nb6  1  0.39942602  1.00019568  0.81291073  1
  Nb  Nb7  1  0.09831073  0.49993672  0.71344242  1
  V  V8  1  0.70346023  0.50277221  0.90920489  1
  V  V9  1  0.99365722  -0.00566708  0.99938405  1
  C  C10  1  0.70729763  0.99900365  0.91080610  1
  C  C11  1  0.49527903  1.00007048  0.49255506  1
  C  C12  1  0.59989645  0.49973634  0.18690623  1
  C  C13  1  0.90005597  1.00035382  0.28863205  1
  C  C14  1  0.99572216  0.50316800  -0.00115560  1
  C  C15  1  0.29380773  0.00031260  0.10050222  1
  C  C16  1  0.40954493  0.50011331  0.81043666  1
  C  C17  1  0.80234897  0.50014604  0.60579312  1
  C  C18  1  0.10336718  0.00016912  0.70775490  1
  C  C19  1  0.19418678  0.50011570  0.39422946  1
