# generated using pymatgen
data_TiAl11N12
_symmetry_space_group_name_H-M   'P 1'
_cell_length_a   5.02696968
_cell_length_b   5.43930138
_cell_length_c   9.43320237
_cell_angle_alpha   90.00280008
_cell_angle_beta   89.99977367
_cell_angle_gamma   89.95280668
_symmetry_Int_Tables_number   1
_chemical_formula_structural   TiAl11N12
_chemical_formula_sum   'Ti1 Al11 N12'
_cell_volume   257.93388082
_cell_formula_units_Z   1
loop_
 _symmetry_equiv_pos_site_id
 _symmetry_equiv_pos_as_xyz
  1  'x, y, z'
loop_
 _atom_site_type_symbol
 _atom_site_label
 _atom_site_symmetry_multiplicity
 _atom_site_fract_x
 _atom_site_fract_y
 _atom_site_fract_z
 _atom_site_occupancy
  Ti  Ti0  1  0.50659385  0.33199909  0.66664524  1
  Al  Al1  1  0.00497488  0.16515939  0.83726881  1
  Al  Al2  1  0.50182646  0.83402547  0.16671581  1
  Al  Al3  1  0.50135878  0.33496219  0.00372928  1
  Al  Al4  1  0.00208896  0.16548455  0.16672184  1
  Al  Al5  1  0.00248830  0.66556667  0.33161886  1
  Al  Al6  1  0.00505534  0.16511272  0.49614284  1
  Al  Al7  1  0.00509361  0.67515143  0.66667842  1
  Al  Al8  1  0.00241163  0.66564223  0.00178571  1
  Al  Al9  1  0.50141261  0.33492590  0.32964129  1
  Al  Al10  1  0.50065842  0.83025052  0.49621146  1
  Al  Al11  1  0.50062734  0.83029334  0.83711551  1
  N  N12  1  0.62315998  0.16609053  0.16666689  1
  N  N13  1  0.62353442  0.66560364  0.33320487  1
  N  N14  1  0.62262934  0.16393856  0.49676242  1
  N  N15  1  0.62373200  0.67517194  0.66664796  1
  N  N16  1  0.62245996  0.16406352  0.83660736  1
  N  N17  1  0.62352104  0.66570114  0.00014435  1
  N  N18  1  0.12280028  0.83315789  0.16671380  1
  N  N19  1  0.12318326  0.33322739  0.33345282  1
  N  N20  1  0.12298396  0.83336804  0.49952766  1
  N  N21  1  0.10832941  0.33447276  0.66669446  1
  N  N22  1  0.12297928  0.83339356  0.83385141  1
  N  N23  1  0.12310619  0.33326402  -0.00002032  1
