# generated using pymatgen
data_HfTaTiNbMoC5
_symmetry_space_group_name_H-M   'P 1'
_cell_length_a   7.06608744
_cell_length_b   4.47472466
_cell_length_c   7.06858830
_cell_angle_alpha   90.00407250
_cell_angle_beta   89.97087132
_cell_angle_gamma   90.00895274
_symmetry_Int_Tables_number   1
_chemical_formula_structural   HfTaTiNbMoC5
_chemical_formula_sum   'Hf2 Ta2 Ti2 Nb2 Mo2 C10'
_cell_volume   223.50021756
_cell_formula_units_Z   2
loop_
 _symmetry_equiv_pos_site_id
 _symmetry_equiv_pos_as_xyz
  1  'x, y, z'
loop_
 _atom_site_type_symbol
 _atom_site_label
 _atom_site_symmetry_multiplicity
 _atom_site_fract_x
 _atom_site_fract_y
 _atom_site_fract_z
 _atom_site_occupancy
  Hf  Hf0  1  0.59717522  -0.00049371  0.20161082  1
  Hf  Hf1  1  0.90657927  0.50018388  0.30221380  1
  Ta  Ta2  1  0.39333661  0.00025496  0.79529842  1
  Ta  Ta3  1  0.69774970  0.50007830  0.89482483  1
  Ti  Ti4  1  0.49321823  0.50016352  0.49408056  1
  Ti  Ti5  1  0.20220958  -0.00031492  0.39914994  1
  Nb  Nb6  1  0.80138710  1.00022104  0.60754020  1
  Nb  Nb7  1  0.10308757  0.50015286  0.70844443  1
  Mo  Mo8  1  0.28992239  0.49020127  0.10572965  1
  Mo  Mo9  1  0.01971518  0.00086266  0.00473058  1
  C  C10  1  0.70051745  1.00011144  0.89768794  1
  C  C11  1  0.49320650  0.00044336  0.50372533  1
  C  C12  1  0.59173847  0.50030872  0.19733842  1
  C  C13  1  0.91070853  0.00013330  0.29717665  1
  C  C14  1  0.99978899  0.50074789  0.99615153  1
  C  C15  1  0.29486216  0.00530286  0.09765647  1
  C  C16  1  0.40153291  0.50076745  0.79868584  1
  C  C17  1  0.79298101  0.50009206  0.60343768  1
  C  C18  1  0.10110507  1.00006487  0.69842948  1
  C  C19  1  0.21037373  0.50090786  0.39635988  1
