# generated using pymatgen
data_Al11VN12
_symmetry_space_group_name_H-M   'P 1'
_cell_length_a   5.03303571
_cell_length_b   5.43680068
_cell_length_c   9.42537133
_cell_angle_alpha   89.99326013
_cell_angle_beta   90.00033367
_cell_angle_gamma   89.99841155
_symmetry_Int_Tables_number   1
_chemical_formula_structural   Al11VN12
_chemical_formula_sum   'Al11 V1 N12'
_cell_volume   257.91220171
_cell_formula_units_Z   1
loop_
 _symmetry_equiv_pos_site_id
 _symmetry_equiv_pos_as_xyz
  1  'x, y, z'
loop_
 _atom_site_type_symbol
 _atom_site_label
 _atom_site_symmetry_multiplicity
 _atom_site_fract_x
 _atom_site_fract_y
 _atom_site_fract_z
 _atom_site_occupancy
  Al  Al0  1  0.00468976  0.16488187  0.83682260  1
  Al  Al1  1  0.50070176  0.83522377  0.16664518  1
  Al  Al2  1  0.50086871  0.33583873  0.00317837  1
  Al  Al3  1  0.00089249  0.16640850  0.16671182  1
  Al  Al4  1  0.00147073  0.66638668  0.33209994  1
  Al  Al5  1  0.00480268  0.16481103  0.49663215  1
  Al  Al6  1  0.00530698  0.67303664  0.66676185  1
  Al  Al7  1  0.00150192  0.66646208  0.00131921  1
  Al  Al8  1  0.50094291  0.33561572  0.33004056  1
  Al  Al9  1  0.50136662  0.83036338  0.49685969  1
  Al  Al10  1  0.50129737  0.83066066  0.83647901  1
  V  V11  1  0.50657571  0.32933251  0.66634800  1
  N  N12  1  0.62275798  0.16720755  0.16659640  1
  N  N13  1  0.62333284  0.66589326  0.33251023  1
  N  N14  1  0.62571847  0.16001606  0.49199232  1
  N  N15  1  0.62646591  0.68194907  0.66671897  1
  N  N16  1  0.62554173  0.16035161  0.84120849  1
  N  N17  1  0.62333197  0.66610087  0.00080325  1
  N  N18  1  0.12225670  0.83403282  0.16671706  1
  N  N19  1  0.12350656  0.33418806  0.33307537  1
  N  N20  1  0.12476629  0.83261770  0.49960705  1
  N  N21  1  0.10353999  0.33343439  0.66671715  1
  N  N22  1  0.12476488  0.83278810  0.83380958  1
  N  N23  1  0.12346064  0.33424831  0.00036079  1
