# generated using pymatgen
data_HfTaTiNbVC5
_symmetry_space_group_name_H-M   'P 1'
_cell_length_a   7.01535015
_cell_length_b   4.45235281
_cell_length_c   7.01399563
_cell_angle_alpha   90.00117843
_cell_angle_beta   90.01883613
_cell_angle_gamma   89.99609866
_symmetry_Int_Tables_number   1
_chemical_formula_structural   HfTaTiNbVC5
_chemical_formula_sum   'Hf2 Ta2 Ti2 Nb2 V2 C10'
_cell_volume   219.08083604
_cell_formula_units_Z   2
loop_
 _symmetry_equiv_pos_site_id
 _symmetry_equiv_pos_as_xyz
  1  'x, y, z'
loop_
 _atom_site_type_symbol
 _atom_site_label
 _atom_site_symmetry_multiplicity
 _atom_site_fract_x
 _atom_site_fract_y
 _atom_site_fract_z
 _atom_site_occupancy
  Hf  Hf0  1  0.50098229  0.49994350  0.49827777  1
  Hf  Hf1  1  0.79949168  1.00007288  0.60809434  1
  Ta  Ta2  1  0.19899164  -0.00005892  0.39313527  1
  Ta  Ta3  1  0.89965243  0.49991423  0.28423793  1
  Ti  Ti4  1  0.30357720  0.50006977  0.09430874  1
  Ti  Ti5  1  0.60186972  1.00006431  0.19044590  1
  Nb  Nb6  1  0.39931271  1.00000229  0.81300536  1
  Nb  Nb7  1  0.09814027  0.50008821  0.71329629  1
  V  V8  1  0.70295372  0.50435304  0.90909439  1
  V  V9  1  0.99344646  0.00554854  0.99911141  1
  C  C10  1  0.70723422  0.99722835  0.91114041  1
  C  C11  1  0.49540840  0.99994007  0.49242607  1
  C  C12  1  0.60018367  0.49960324  0.18694378  1
  C  C13  1  0.90056604  0.99980320  0.28879991  1
  C  C14  1  0.99542307  0.49619424  -0.00114928  1
  C  C15  1  0.29360027  -0.00033617  0.10085760  1
  C  C16  1  0.40923469  0.49967794  0.81080273  1
  C  C17  1  0.80270323  0.49971010  0.60595738  1
  C  C18  1  0.10330527  -0.00054861  0.70775392  1
  C  C19  1  0.19441478  0.50000240  0.39441029  1
