# generated using pymatgen
data_MnAl11N12
_symmetry_space_group_name_H-M   'P 1'
_cell_length_a   5.02962742
_cell_length_b   5.43871182
_cell_length_c   9.41978749
_cell_angle_alpha   90.00578548
_cell_angle_beta   90.00114427
_cell_angle_gamma   89.98773480
_symmetry_Int_Tables_number   1
_chemical_formula_structural   MnAl11N12
_chemical_formula_sum   'Mn1 Al11 N12'
_cell_volume   257.67539791
_cell_formula_units_Z   1
loop_
 _symmetry_equiv_pos_site_id
 _symmetry_equiv_pos_as_xyz
  1  'x, y, z'
loop_
 _atom_site_type_symbol
 _atom_site_label
 _atom_site_symmetry_multiplicity
 _atom_site_fract_x
 _atom_site_fract_y
 _atom_site_fract_z
 _atom_site_occupancy
  Mn  Mn0  1  0.50267889  0.33490387  0.66667724  1
  Al  Al1  1  0.00130808  0.16695295  0.83608338  1
  Al  Al2  1  0.50373265  0.83185140  0.16673149  1
  Al  Al3  1  0.50202164  0.33315658  0.00348831  1
  Al  Al4  1  0.00316960  0.16363694  0.16670375  1
  Al  Al5  1  0.00314672  0.66523655  0.33192192  1
  Al  Al6  1  0.00133991  0.16683035  0.49735122  1
  Al  Al7  1  0.00162245  0.67229277  0.66672378  1
  Al  Al8  1  0.00311692  0.66533960  0.00151131  1
  Al  Al9  1  0.50205204  0.33309289  0.32997332  1
  Al  Al10  1  0.50096588  0.83342607  0.49659843  1
  Al  Al11  1  0.50102411  0.83352229  0.83688505  1
  N  N12  1  0.62547295  0.16413529  0.16671146  1
  N  N13  1  0.62531698  0.66483704  0.33216767  1
  N  N14  1  0.62299861  0.16348195  0.49353700  1
  N  N15  1  0.62325068  0.67974638  0.66670065  1
  N  N16  1  0.62300306  0.16357887  0.83988636  1
  N  N17  1  0.62532221  0.66490600  0.00128216  1
  N  N18  1  0.12619678  0.83212797  0.16669592  1
  N  N19  1  0.12396458  0.33263573  0.33183912  1
  N  N20  1  0.12279072  0.83360478  0.49833223  1
  N  N21  1  0.10799587  0.33432528  0.66674925  1
  N  N22  1  0.12280216  0.83371650  0.83512357  1
  N  N23  1  0.12392076  0.33269193  0.00159292  1
