# generated using pymatgen
data_HfTaTiNbMoC5
_symmetry_space_group_name_H-M   'P 1'
_cell_length_a   7.06740047
_cell_length_b   4.47185257
_cell_length_c   7.07154448
_cell_angle_alpha   90.00170601
_cell_angle_beta   89.98184329
_cell_angle_gamma   89.99807887
_symmetry_Int_Tables_number   1
_chemical_formula_structural   HfTaTiNbMoC5
_chemical_formula_sum   'Hf2 Ta2 Ti2 Nb2 Mo2 C10'
_cell_volume   223.49171763
_cell_formula_units_Z   2
loop_
 _symmetry_equiv_pos_site_id
 _symmetry_equiv_pos_as_xyz
  1  'x, y, z'
loop_
 _atom_site_type_symbol
 _atom_site_label
 _atom_site_symmetry_multiplicity
 _atom_site_fract_x
 _atom_site_fract_y
 _atom_site_fract_z
 _atom_site_occupancy
  Hf  Hf0  1  0.59689538  0.99992473  0.20178982  1
  Hf  Hf1  1  0.90566503  0.49996693  0.30244259  1
  Ta  Ta2  1  0.39350292  0.99997493  0.79495593  1
  Ta  Ta3  1  0.69738956  0.50012198  0.89485402  1
  Ti  Ti4  1  0.49339490  0.49998298  0.49365546  1
  Ti  Ti5  1  0.20216094  1.00004077  0.39799429  1
  Nb  Nb6  1  0.80170968  -0.00001739  0.60745297  1
  Nb  Nb7  1  0.10326865  0.50003260  0.70891094  1
  Mo  Mo8  1  0.28931432  0.49957320  0.10637395  1
  Mo  Mo9  1  0.01966088  0.00017024  0.00558713  1
  C  C10  1  0.70029856  -0.00023581  0.89763282  1
  C  C11  1  0.49328609  0.00003142  0.50349320  1
  C  C12  1  0.59168212  0.49991709  0.19735092  1
  C  C13  1  0.91054592  0.99995266  0.29726643  1
  C  C14  1  0.99987507  0.49981682  0.99652196  1
  C  C15  1  0.29445954  1.00007207  0.09760282  1
  C  C16  1  0.40180139  0.49999589  0.79809990  1
  C  C17  1  0.79325596  0.49990853  0.60344075  1
  C  C18  1  0.10123646  0.00000368  0.69878639  1
  C  C19  1  0.21006180  0.50001428  0.39682953  1
