# generated using pymatgen
data_HfTaTiNbVC5
_symmetry_space_group_name_H-M   'P 1'
_cell_length_a   7.01766526
_cell_length_b   4.45011192
_cell_length_c   7.01506925
_cell_angle_alpha   89.99861306
_cell_angle_beta   90.01182105
_cell_angle_gamma   90.00016382
_symmetry_Int_Tables_number   1
_chemical_formula_structural   HfTaTiNbVC5
_chemical_formula_sum   'Hf2 Ta2 Ti2 Nb2 V2 C10'
_cell_volume   219.07636964
_cell_formula_units_Z   2
loop_
 _symmetry_equiv_pos_site_id
 _symmetry_equiv_pos_as_xyz
  1  'x, y, z'
loop_
 _atom_site_type_symbol
 _atom_site_label
 _atom_site_symmetry_multiplicity
 _atom_site_fract_x
 _atom_site_fract_y
 _atom_site_fract_z
 _atom_site_occupancy
  Hf  Hf0  1  0.50057937  0.50000611  0.49814283  1
  Hf  Hf1  1  0.79947023  0.99993880  0.60795727  1
  Ta  Ta2  1  0.19870107  1.00007522  0.39283821  1
  Ta  Ta3  1  0.89944640  0.50001273  0.28425832  1
  Ti  Ti4  1  0.30337156  0.49993759  0.09405236  1
  Ti  Ti5  1  0.60164260  1.00008093  0.19030444  1
  Nb  Nb6  1  0.39926437  0.00003046  0.81289518  1
  Nb  Nb7  1  0.09817353  0.49988634  0.71326849  1
  V  V8  1  0.70331071  0.49788320  0.90912827  1
  V  V9  1  0.99348562  0.99403881  0.99914814  1
  C  C10  1  0.70723464  1.00163848  0.91095564  1
  C  C11  1  0.49527968  -0.00001235  0.49249399  1
  C  C12  1  0.60000267  0.50013796  0.18684293  1
  C  C13  1  0.90034388  1.00021127  0.28867104  1
  C  C14  1  0.99551298  0.50359261  -0.00123382  1
  C  C15  1  0.29372670  1.00027073  0.10065402  1
  C  C16  1  0.40938115  0.50023132  0.81062162  1
  C  C17  1  0.80247973  0.49996326  0.60579993  1
  C  C18  1  0.10326241  0.00005105  0.70764919  1
  C  C19  1  0.19434228  0.49997596  0.39422269  1
