# generated using pymatgen
data_Ti11CoN12
_symmetry_space_group_name_H-M   'P 1'
_cell_length_a   5.20005454
_cell_length_b   6.00378856
_cell_length_c   7.34991248
_cell_angle_alpha   90.00875002
_cell_angle_beta   90.10776259
_cell_angle_gamma   89.99231191
_symmetry_Int_Tables_number   1
_chemical_formula_structural   Ti11CoN12
_chemical_formula_sum   'Ti11 Co1 N12'
_cell_volume   229.46406240
_cell_formula_units_Z   1
loop_
 _symmetry_equiv_pos_site_id
 _symmetry_equiv_pos_as_xyz
  1  'x, y, z'
loop_
 _atom_site_type_symbol
 _atom_site_label
 _atom_site_symmetry_multiplicity
 _atom_site_fract_x
 _atom_site_fract_y
 _atom_site_fract_z
 _atom_site_occupancy
  Ti  Ti0  1  0.50411940  0.25291339  0.00609575  1
  Ti  Ti1  1  0.32998477  0.00006121  0.66896585  1
  Ti  Ti2  1  0.16678959  0.74617335  0.33322115  1
  Ti  Ti3  1  0.50441091  0.74766540  0.00548084  1
  Ti  Ti4  1  0.33856238  0.49996701  0.66500536  1
  Ti  Ti5  1  0.00326657  1.00001509  0.99769979  1
  Ti  Ti6  1  0.82941215  0.74787932  0.66106748  1
  Ti  Ti7  1  0.99537030  0.50023669  1.00176860  1
  Ti  Ti8  1  0.16648276  0.25373112  0.33357579  1
  Ti  Ti9  1  0.82899622  0.25222359  0.66098540  1
  Ti  Ti10  1  0.66603375  0.99976102  0.33373070  1
  Co  Co11  1  0.66779381  0.50113889  0.33309948  1
  N  N12  1  0.16670610  0.25187997  0.83343474  1
  N  N13  1  0.49597676  0.24558982  0.50194565  1
  N  N14  1  0.33353061  1.00021006  0.16827226  1
  N  N15  1  0.16646509  0.74752510  0.83330998  1
  N  N16  1  0.49625186  0.75399065  0.50194842  1
  N  N17  1  0.32635446  0.50012263  0.16307669  1
  N  N18  1  0.83640455  0.24596043  0.16499422  1
  N  N19  1  0.66677261  0.00056229  0.83301360  1
  N  N20  1  -0.00084309  -0.00007917  0.49840253  1
  N  N21  1  0.83666653  0.75357377  0.16458255  1
  N  N22  1  0.66656241  0.50013126  0.83357703  1
  N  N23  1  0.00688485  0.50001050  0.50368887  1
