# generated using pymatgen
data_HfTaTiNbMoC5
_symmetry_space_group_name_H-M   'P 1'
_cell_length_a   7.06658271
_cell_length_b   4.47218853
_cell_length_c   7.07071270
_cell_angle_alpha   90.00859744
_cell_angle_beta   89.98108153
_cell_angle_gamma   89.99692187
_symmetry_Int_Tables_number   1
_chemical_formula_structural   HfTaTiNbMoC5
_chemical_formula_sum   'Hf2 Ta2 Ti2 Nb2 Mo2 C10'
_cell_volume   223.45635592
_cell_formula_units_Z   2
loop_
 _symmetry_equiv_pos_site_id
 _symmetry_equiv_pos_as_xyz
  1  'x, y, z'
loop_
 _atom_site_type_symbol
 _atom_site_label
 _atom_site_symmetry_multiplicity
 _atom_site_fract_x
 _atom_site_fract_y
 _atom_site_fract_z
 _atom_site_occupancy
  Hf  Hf0  1  0.59691335  -0.00001317  0.20175647  1
  Hf  Hf1  1  0.90657905  0.49930474  0.30238768  1
  Ta  Ta2  1  0.39328216  1.00020320  0.79563411  1
  Ta  Ta3  1  0.69754374  0.50023508  0.89500366  1
  Ti  Ti4  1  0.49323095  0.50003667  0.49417718  1
  Ti  Ti5  1  0.20249571  1.00008092  0.39843006  1
  Nb  Nb6  1  0.80123134  0.99992511  0.60728142  1
  Nb  Nb7  1  0.10322131  0.49994911  0.70773626  1
  Mo  Mo8  1  0.28983521  0.49987652  0.10617947  1
  Mo  Mo9  1  0.01934024  0.98893289  0.00340297  1
  C  C10  1  0.70085004  1.00091057  0.89793625  1
  C  C11  1  0.49321088  1.00002795  0.50385798  1
  C  C12  1  0.59177851  0.50012006  0.19742834  1
  C  C13  1  0.91061337  1.00000111  0.29730197  1
  C  C14  1  1.00014057  0.50590014  0.99602402  1
  C  C15  1  0.29460115  1.00186179  0.09767043  1
  C  C16  1  0.40144913  0.50038506  0.79887092  1
  C  C17  1  0.79273687  0.50003625  0.60349901  1
  C  C18  1  0.10118904  0.00050590  0.69817401  1
  C  C19  1  0.21036487  0.50009535  0.39637951  1
