# generated using pymatgen
data_TiAl11N12
_symmetry_space_group_name_H-M   'P 1'
_cell_length_a   5.02653230
_cell_length_b   5.43933005
_cell_length_c   9.43388125
_cell_angle_alpha   90.00460819
_cell_angle_beta   89.99847928
_cell_angle_gamma   89.95617824
_symmetry_Int_Tables_number   1
_chemical_formula_structural   TiAl11N12
_chemical_formula_sum   'Ti1 Al11 N12'
_cell_volume   257.93137041
_cell_formula_units_Z   1
loop_
 _symmetry_equiv_pos_site_id
 _symmetry_equiv_pos_as_xyz
  1  'x, y, z'
loop_
 _atom_site_type_symbol
 _atom_site_label
 _atom_site_symmetry_multiplicity
 _atom_site_fract_x
 _atom_site_fract_y
 _atom_site_fract_z
 _atom_site_occupancy
  Ti  Ti0  1  0.50689521  0.33191368  0.66672926  1
  Al  Al1  1  0.00502716  0.16505700  0.83716977  1
  Al  Al2  1  0.50189918  0.83416499  0.16665145  1
  Al  Al3  1  0.50143011  0.33507100  0.00381946  1
  Al  Al4  1  0.00220386  0.16551143  0.16661320  1
  Al  Al5  1  0.00268762  0.66558676  0.33153552  1
  Al  Al6  1  0.00532742  0.16506807  0.49601731  1
  Al  Al7  1  0.00536948  0.67510653  0.66660996  1
  Al  Al8  1  0.00248499  0.66563008  0.00165542  1
  Al  Al9  1  0.50162896  0.33510066  0.32962606  1
  Al  Al10  1  0.50086355  0.83038693  0.49626553  1
  Al  Al11  1  0.50077055  0.83027225  0.83706668  1
  N  N12  1  0.62329711  0.16619968  0.16671799  1
  N  N13  1  0.62374794  0.66580361  0.33319824  1
  N  N14  1  0.62283640  0.16407181  0.49676347  1
  N  N15  1  0.62394386  0.67509879  0.66669609  1
  N  N16  1  0.62256353  0.16397578  0.83670411  1
  N  N17  1  0.62355606  0.66574595  0.00015034  1
  N  N18  1  0.12287592  0.83314876  0.16660922  1
  N  N19  1  0.12337573  0.33324432  0.33334531  1
  N  N20  1  0.12322981  0.83332693  0.49941484  1
  N  N21  1  0.10848274  0.33437318  0.66661108  1
  N  N22  1  0.12309014  0.83340354  0.83377110  1
  N  N23  1  0.12315960  0.33326393  -0.00010811  1
