# generated using pymatgen
data_Al11ReN12
_symmetry_space_group_name_H-M   'P 1'
_cell_length_a   5.01504865
_cell_length_b   5.78827023
_cell_length_c   7.09576497
_cell_angle_alpha   90.00405036
_cell_angle_beta   90.07193968
_cell_angle_gamma   90.00738099
_symmetry_Int_Tables_number   1
_chemical_formula_structural   Al11ReN12
_chemical_formula_sum   'Al11 Re1 N12'
_cell_volume   205.97894223
_cell_formula_units_Z   1
loop_
 _symmetry_equiv_pos_site_id
 _symmetry_equiv_pos_as_xyz
  1  'x, y, z'
loop_
 _atom_site_type_symbol
 _atom_site_label
 _atom_site_symmetry_multiplicity
 _atom_site_fract_x
 _atom_site_fract_y
 _atom_site_fract_z
 _atom_site_occupancy
  Al  Al0  1  0.50084561  0.24800534  1.00127220  1
  Al  Al1  1  0.33233276  0.00052457  0.67216719  1
  Al  Al2  1  0.16574506  0.75231326  0.33355220  1
  Al  Al3  1  0.49958500  0.75188335  1.00210286  1
  Al  Al4  1  0.33648375  0.50005353  0.67048803  1
  Al  Al5  1  -0.00211919  0.99947971  0.99360345  1
  Al  Al6  1  0.83234018  0.75101285  0.66539086  1
  Al  Al7  1  0.99656587  0.50011950  0.99641097  1
  Al  Al8  1  0.16572939  0.24780436  0.33231549  1
  Al  Al9  1  0.83327322  0.24937843  0.66559372  1
  Al  Al10  1  0.66428863  -0.00002045  0.33599500  1
  Re  Re11  1  0.66585863  0.49989760  0.33284166  1
  N  N12  1  0.16851480  0.24963203  0.83302191  1
  N  N13  1  0.49421645  0.23875630  0.50925885  1
  N  N14  1  0.34204197  0.00078726  0.17017708  1
  N  N15  1  0.16783142  0.75217132  0.83356572  1
  N  N16  1  0.49224518  0.75962375  0.51014931  1
  N  N17  1  0.31350307  0.50115673  0.15932555  1
  N  N18  1  0.84158754  0.23943808  0.15587977  1
  N  N19  1  0.66819076  0.00053161  0.83240251  1
  N  N20  1  0.99171252  0.99911409  0.49651193  1
  N  N21  1  0.84011345  0.76024475  0.15652418  1
  N  N22  1  0.66732357  0.50065958  0.83303189  1
  N  N23  1  0.02083710  0.49872337  0.50793439  1
