# generated using pymatgen
data_HfTaTiNbWC5
_symmetry_space_group_name_H-M   'P 1'
_cell_length_a   7.08283627
_cell_length_b   4.47111133
_cell_length_c   7.06259783
_cell_angle_alpha   89.99654412
_cell_angle_beta   89.96993444
_cell_angle_gamma   89.99712061
_symmetry_Int_Tables_number   1
_chemical_formula_structural   HfTaTiNbWC5
_chemical_formula_sum   'Hf2 Ta2 Ti2 Nb2 W2 C10'
_cell_volume   223.65937242
_cell_formula_units_Z   2
loop_
 _symmetry_equiv_pos_site_id
 _symmetry_equiv_pos_as_xyz
  1  'x, y, z'
loop_
 _atom_site_type_symbol
 _atom_site_label
 _atom_site_symmetry_multiplicity
 _atom_site_fract_x
 _atom_site_fract_y
 _atom_site_fract_z
 _atom_site_occupancy
  Hf  Hf0  1  0.40136299  0.99990588  0.80404000  1
  Hf  Hf1  1  0.10385001  0.49988162  0.69351515  1
  Ta  Ta2  1  0.69964407  0.49984900  0.90648250  1
  Ta  Ta3  1  -0.00427830  0.99969150  0.01291075  1
  Ti  Ti4  1  0.29637984  0.50007416  0.10911813  1
  Ti  Ti5  1  0.59285782  -0.00012450  0.20319655  1
  Nb  Nb6  1  0.50824055  0.50023900  0.49400906  1
  Nb  Nb7  1  0.80583510  -0.00032338  0.58869063  1
  W  W8  1  0.21398388  1.00209467  0.38971601  1
  W  W9  1  0.88683045  0.49732716  0.29247787  1
  C  C10  1  0.70482618  0.99988233  0.90730948  1
  C  C11  1  0.49686578  0.99982057  0.49166953  1
  C  C12  1  0.59978934  0.50015782  0.19795952  1
  C  C13  1  0.89904324  0.00023349  0.29966429  1
  C  C14  1  0.00014108  0.49988743  0.01023076  1
  C  C15  1  0.29769932  0.99944531  0.10839079  1
  C  C16  1  0.40515208  0.49983783  0.80792216  1
  C  C17  1  0.79863902  0.49990516  0.59654689  1
  C  C18  1  0.09783962  0.99973758  0.69663188  1
  C  C19  1  0.19535435  0.49898830  0.38955028  1
