# generated using pymatgen
data_HfTaTiNbWC5
_symmetry_space_group_name_H-M   'P 1'
_cell_length_a   7.08720367
_cell_length_b   4.46505932
_cell_length_c   7.06873483
_cell_angle_alpha   89.99842654
_cell_angle_beta   89.98895695
_cell_angle_gamma   89.99977155
_symmetry_Int_Tables_number   1
_chemical_formula_structural   HfTaTiNbWC5
_chemical_formula_sum   'Hf2 Ta2 Ti2 Nb2 W2 C10'
_cell_volume   223.68858830
_cell_formula_units_Z   2
loop_
 _symmetry_equiv_pos_site_id
 _symmetry_equiv_pos_as_xyz
  1  'x, y, z'
loop_
 _atom_site_type_symbol
 _atom_site_label
 _atom_site_symmetry_multiplicity
 _atom_site_fract_x
 _atom_site_fract_y
 _atom_site_fract_z
 _atom_site_occupancy
  Hf  Hf0  1  0.40148806  -0.00022715  0.80335411  1
  Hf  Hf1  1  0.10351697  0.50014456  0.69325961  1
  Ta  Ta2  1  0.69980383  0.49960261  0.90648406  1
  Ta  Ta3  1  -0.00382504  0.00000665  0.01323156  1
  Ti  Ti4  1  0.29705402  0.50065963  0.10861510  1
  Ti  Ti5  1  0.59267987  -0.00041272  0.20310416  1
  Nb  Nb6  1  0.50767003  0.49988355  0.49343022  1
  Nb  Nb7  1  0.80533958  1.00013559  0.58857775  1
  W  W8  1  0.21262159  0.00576618  0.38911278  1
  W  W9  1  0.88737469  0.50591039  0.29287736  1
  C  C10  1  0.70481636  -0.00044553  0.90734389  1
  C  C11  1  0.49649135  0.99920896  0.49122474  1
  C  C12  1  0.60037627  0.49908434  0.19814213  1
  C  C13  1  0.89963865  -0.00409754  0.29983766  1
  C  C14  1  0.00023092  0.49929893  0.01014962  1
  C  C15  1  0.29809972  -0.00117666  0.10812133  1
  C  C16  1  0.40513724  0.49958699  0.80752712  1
  C  C17  1  0.79824106  0.49930342  0.59668995  1
  C  C18  1  0.09774550  0.99952642  0.69677557  1
  C  C19  1  0.19550726  0.49613052  0.38934744  1
