# generated using pymatgen
data_Al11VN12
_symmetry_space_group_name_H-M   'P 1'
_cell_length_a   5.03361178
_cell_length_b   5.43709853
_cell_length_c   9.42536224
_cell_angle_alpha   90.00253051
_cell_angle_beta   90.00074336
_cell_angle_gamma   89.99495015
_symmetry_Int_Tables_number   1
_chemical_formula_structural   Al11VN12
_chemical_formula_sum   'Al11 V1 N12'
_cell_volume   257.95560429
_cell_formula_units_Z   1
loop_
 _symmetry_equiv_pos_site_id
 _symmetry_equiv_pos_as_xyz
  1  'x, y, z'
loop_
 _atom_site_type_symbol
 _atom_site_label
 _atom_site_symmetry_multiplicity
 _atom_site_fract_x
 _atom_site_fract_y
 _atom_site_fract_z
 _atom_site_occupancy
  Al  Al0  1  0.00480547  0.16462271  0.83688685  1
  Al  Al1  1  0.50075189  0.83542914  0.16664665  1
  Al  Al2  1  0.50094948  0.33586306  0.00332814  1
  Al  Al3  1  0.00090468  0.16641642  0.16675054  1
  Al  Al4  1  0.00152623  0.66654809  0.33209414  1
  Al  Al5  1  0.00469834  0.16477572  0.49659594  1
  Al  Al6  1  0.00537487  0.67276028  0.66668944  1
  Al  Al7  1  0.00157130  0.66646773  0.00133460  1
  Al  Al8  1  0.50085851  0.33593094  0.33014533  1
  Al  Al9  1  0.50128937  0.83051365  0.49689617  1
  Al  Al10  1  0.50134813  0.83035116  0.83642481  1
  V  V11  1  0.50651548  0.32897962  0.66681746  1
  N  N12  1  0.62277868  0.16740909  0.16673927  1
  N  N13  1  0.62332062  0.66613768  0.33252074  1
  N  N14  1  0.62553236  0.16011827  0.49208249  1
  N  N15  1  0.62644992  0.68177347  0.66664414  1
  N  N16  1  0.62565655  0.15999441  0.84135943  1
  N  N17  1  0.62340074  0.66606171  0.00082065  1
  N  N18  1  0.12233407  0.83409289  0.16671487  1
  N  N19  1  0.12342400  0.33429834  0.33309037  1
  N  N20  1  0.12468305  0.83264488  0.49962289  1
  N  N21  1  0.10357592  0.33309039  0.66677379  1
  N  N22  1  0.12475997  0.83255310  0.83378042  1
  N  N23  1  0.12352403  0.33418378  0.00040427  1
