# generated using pymatgen
data_Al11CrN12
_symmetry_space_group_name_H-M   'P 1'
_cell_length_a   5.02252751
_cell_length_b   5.42488986
_cell_length_c   9.41781603
_cell_angle_alpha   90.00896971
_cell_angle_beta   89.99580344
_cell_angle_gamma   89.97622428
_symmetry_Int_Tables_number   1
_chemical_formula_structural   Al11CrN12
_chemical_formula_sum   'Al11 Cr1 N12'
_cell_volume   256.60399191
_cell_formula_units_Z   1
loop_
 _symmetry_equiv_pos_site_id
 _symmetry_equiv_pos_as_xyz
  1  'x, y, z'
loop_
 _atom_site_type_symbol
 _atom_site_label
 _atom_site_symmetry_multiplicity
 _atom_site_fract_x
 _atom_site_fract_y
 _atom_site_fract_z
 _atom_site_occupancy
  Al  Al0  1  0.00293910  0.16550722  0.83562992  1
  Al  Al1  1  0.50301592  0.83263150  0.16615012  1
  Al  Al2  1  0.50113583  0.33383666  0.00291972  1
  Al  Al3  1  0.00253455  0.16456129  0.16693888  1
  Al  Al4  1  0.00321902  0.66588387  0.33241098  1
  Al  Al5  1  0.00397797  0.16681756  0.49815196  1
  Al  Al6  1  0.00370910  0.67252677  0.66626290  1
  Al  Al7  1  0.00238162  0.66506708  0.00051203  1
  Al  Al8  1  0.50192499  0.33527929  0.33088392  1
  Al  Al9  1  0.50082476  0.83300293  0.49714091  1
  Al  Al10  1  0.49993505  0.83102757  0.83562533  1
  Cr  Cr11  1  0.50327635  0.33403429  0.66707200  1
  N  N12  1  0.62398290  0.16533532  0.16717212  1
  N  N13  1  0.62471642  0.66645596  0.33279881  1
  N  N14  1  0.62210057  0.16668556  0.49766908  1
  N  N15  1  0.62240824  0.67429878  0.66607981  1
  N  N16  1  0.62162576  0.16436248  0.83673752  1
  N  N17  1  0.62393094  0.66489604  0.00008970  1
  N  N18  1  0.12431742  0.83205353  0.16629011  1
  N  N19  1  0.12383978  0.33298537  0.33303253  1
  N  N20  1  0.12300918  0.83404148  0.49913074  1
  N  N21  1  0.11532219  0.33445801  0.66706960  1
  N  N22  1  0.12224790  0.83271340  0.83374351  1
  N  N23  1  0.12321642  0.33215080  0.00059775  1
