# generated using pymatgen
data_HfTaTiNbVC5
_symmetry_space_group_name_H-M   'P 1'
_cell_length_a   7.01989561
_cell_length_b   4.44874220
_cell_length_c   7.01610857
_cell_angle_alpha   89.99779452
_cell_angle_beta   90.01025567
_cell_angle_gamma   89.99900289
_symmetry_Int_Tables_number   1
_chemical_formula_structural   HfTaTiNbVC5
_chemical_formula_sum   'Hf2 Ta2 Ti2 Nb2 V2 C10'
_cell_volume   219.11100307
_cell_formula_units_Z   2
loop_
 _symmetry_equiv_pos_site_id
 _symmetry_equiv_pos_as_xyz
  1  'x, y, z'
loop_
 _atom_site_type_symbol
 _atom_site_label
 _atom_site_symmetry_multiplicity
 _atom_site_fract_x
 _atom_site_fract_y
 _atom_site_fract_z
 _atom_site_occupancy
  Hf  Hf0  1  0.50029423  0.49994941  0.49800906  1
  Hf  Hf1  1  0.79964010  -0.00000381  0.60811542  1
  Ta  Ta2  1  0.19846130  -0.00008266  0.39296152  1
  Ta  Ta3  1  0.89934374  0.49999299  0.28447758  1
  Ti  Ti4  1  0.30341110  0.50005265  0.09400582  1
  Ti  Ti5  1  0.60152055  -0.00007559  0.19029589  1
  Nb  Nb6  1  0.39950022  0.99990830  0.81301443  1
  Nb  Nb7  1  0.09834336  0.50016687  0.71354056  1
  V  V8  1  0.70367709  0.50138803  0.90928938  1
  V  V9  1  0.99380453  0.00668168  0.99966314  1
  C  C10  1  0.70730758  0.99866494  0.91089621  1
  C  C11  1  0.49532695  -0.00004149  0.49264141  1
  C  C12  1  0.59994744  0.50009667  0.18701001  1
  C  C13  1  0.90008049  0.99971167  0.28871715  1
  C  C14  1  0.99573574  0.49646391  -0.00107309  1
  C  C15  1  0.29381774  -0.00019182  0.10057418  1
  C  C16  1  0.40954762  0.49975843  0.81053746  1
  C  C17  1  0.80237814  0.50002053  0.60583825  1
  C  C18  1  0.10345454  -0.00015002  0.70777199  1
  C  C19  1  0.19421860  0.49997310  0.39434109  1
