# generated using pymatgen
data_Al11CoN12
_symmetry_space_group_name_H-M   'P 1'
_cell_length_a   5.02769404
_cell_length_b   5.41932080
_cell_length_c   9.38927416
_cell_angle_alpha   89.99580227
_cell_angle_beta   89.99635176
_cell_angle_gamma   89.99665548
_symmetry_Int_Tables_number   1
_chemical_formula_structural   Al11CoN12
_chemical_formula_sum   'Al11 Co1 N12'
_cell_volume   255.82661154
_cell_formula_units_Z   1
loop_
 _symmetry_equiv_pos_site_id
 _symmetry_equiv_pos_as_xyz
  1  'x, y, z'
loop_
 _atom_site_type_symbol
 _atom_site_label
 _atom_site_symmetry_multiplicity
 _atom_site_fract_x
 _atom_site_fract_y
 _atom_site_fract_z
 _atom_site_occupancy
  Al  Al0  1  0.00280245  0.16749603  0.83457479  1
  Al  Al1  1  0.50352746  0.83382350  0.16671639  1
  Al  Al2  1  0.50171828  0.33481960  0.00163038  1
  Al  Al3  1  0.00246238  0.16425582  0.16667414  1
  Al  Al4  1  0.00243582  0.66548579  0.33224707  1
  Al  Al5  1  0.00276755  0.16744158  0.49870207  1
  Al  Al6  1  0.00334130  0.66916478  0.66667075  1
  Al  Al7  1  0.00263585  0.66547067  0.00120973  1
  Al  Al8  1  0.50137078  0.33467280  0.33170228  1
  Al  Al9  1  0.50075630  0.83238608  0.49842671  1
  Al  Al10  1  0.50067431  0.83236045  0.83493930  1
  Co  Co11  1  0.50335507  0.33337523  0.66662738  1
  N  N12  1  0.62434061  0.16536807  0.16668751  1
  N  N13  1  0.62425082  0.66613891  0.33200108  1
  N  N14  1  0.62181598  0.16576999  0.49616799  1
  N  N15  1  0.62281300  0.67272926  0.66665685  1
  N  N16  1  0.62196994  0.16562995  0.83729256  1
  N  N17  1  0.62445499  0.66625746  0.00141720  1
  N  N18  1  0.12509490  0.83272684  0.16674710  1
  N  N19  1  0.12295294  0.33344711  0.33175459  1
  N  N20  1  0.12209864  0.83282703  0.49825998  1
  N  N21  1  0.11650651  0.33355642  0.66661106  1
  N  N22  1  0.12205390  0.83278612  0.83508715  1
  N  N23  1  0.12325871  0.33342683  0.00156324  1
