# generated using pymatgen
data_HfTi15N16
_symmetry_space_group_name_H-M   'P 1'
_cell_length_a   7.00804165
_cell_length_b   7.00871687
_cell_length_c   8.54494398
_cell_angle_alpha   89.99861830
_cell_angle_beta   90.00069058
_cell_angle_gamma   120.00001906
_symmetry_Int_Tables_number   1
_chemical_formula_structural   HfTi15N16
_chemical_formula_sum   'Hf1 Ti15 N16'
_cell_volume   363.47534594
_cell_formula_units_Z   1
loop_
 _symmetry_equiv_pos_site_id
 _symmetry_equiv_pos_as_xyz
  1  'x, y, z'
loop_
 _atom_site_type_symbol
 _atom_site_label
 _atom_site_symmetry_multiplicity
 _atom_site_fract_x
 _atom_site_fract_y
 _atom_site_fract_z
 _atom_site_occupancy
  Hf  Hf0  1  0.16679249  0.33313530  0.22045443  1
  Ti  Ti1  1  0.33593037  0.16373748  0.96812321  1
  Ti  Ti2  1  0.16675450  0.33305816  0.72052550  1
  Ti  Ti3  1  0.33627884  0.16395039  0.47298256  1
  Ti  Ti4  1  0.16283988  0.83150286  0.22051092  1
  Ti  Ti5  1  0.33620905  0.67223369  0.96814677  1
  Ti  Ti6  1  0.16664198  0.83344126  0.72056097  1
  Ti  Ti7  1  0.33577638  0.67211499  0.47294960  1
  Ti  Ti8  1  0.66866225  0.33709725  0.22042480  1
  Ti  Ti9  1  0.82772869  0.16357023  0.96819830  1
  Ti  Ti10  1  0.66665771  0.33332292  0.72074169  1
  Ti  Ti11  1  0.82774017  0.16402971  0.47290177  1
  Ti  Ti12  1  0.66871832  0.83142843  0.22068273  1
  Ti  Ti13  1  0.83322253  0.66697950  0.96878454  1
  Ti  Ti14  1  0.66649917  0.83347188  0.72052475  1
  Ti  Ti15  1  0.83332323  0.66709760  0.47211374  1
  N  N16  1  0.16676076  0.33359950  0.47333580  1
  N  N17  1  0.33996717  0.16032572  0.22061380  1
  N  N18  1  0.16669494  0.33374182  0.96781586  1
  N  N19  1  0.33264281  0.16718760  0.72060437  1
  N  N20  1  0.16590354  0.83284952  0.47139154  1
  N  N21  1  0.33936213  0.67911771  0.22059640  1
  N  N22  1  0.16579870  0.83275258  0.96960114  1
  N  N23  1  0.33275386  0.66530095  0.72053416  1
  N  N24  1  0.66706304  0.33388356  0.47147099  1
  N  N25  1  0.82073424  0.16032656  0.22060758  1
  N  N26  1  0.66733942  0.33411288  0.96966465  1
  N  N27  1  0.83510614  0.16735619  0.72051869  1
  N  N28  1  0.66677532  0.83291064  0.47128232  1
  N  N29  1  0.83351602  0.66652442  0.22043388  1
  N  N30  1  0.66666225  0.83310233  0.96984465  1
  N  N31  1  0.83311341  0.66669334  0.72064421  1
