# generated using pymatgen
data_Al11ReN12
_symmetry_space_group_name_H-M   'P 1'
_cell_length_a   5.01450438
_cell_length_b   5.78719053
_cell_length_c   7.09446746
_cell_angle_alpha   89.99477615
_cell_angle_beta   90.06825637
_cell_angle_gamma   89.99722520
_symmetry_Int_Tables_number   1
_chemical_formula_structural   Al11ReN12
_chemical_formula_sum   'Al11 Re1 N12'
_cell_volume   205.88053411
_cell_formula_units_Z   1
loop_
 _symmetry_equiv_pos_site_id
 _symmetry_equiv_pos_as_xyz
  1  'x, y, z'
loop_
 _atom_site_type_symbol
 _atom_site_label
 _atom_site_symmetry_multiplicity
 _atom_site_fract_x
 _atom_site_fract_y
 _atom_site_fract_z
 _atom_site_occupancy
  Al  Al0  1  0.50008236  0.24971321  1.00209923  1
  Al  Al1  1  0.33571529  0.00016488  0.67297454  1
  Al  Al2  1  0.16798263  0.75239779  0.33440004  1
  Al  Al3  1  0.49998344  0.75205192  1.00073801  1
  Al  Al4  1  0.33572494  0.49957715  0.67086857  1
  Al  Al5  1  0.00082808  0.99971409  0.99407151  1
  Al  Al6  1  0.83251541  0.75098152  0.66489166  1
  Al  Al7  1  0.99596034  0.50028130  0.99696436  1
  Al  Al8  1  0.16600843  0.24743681  0.33361721  1
  Al  Al9  1  0.83282036  0.24760861  0.66521704  1
  Al  Al10  1  0.66773078  0.99728644  0.33155270  1
  Re  Re11  1  0.66630823  0.49919531  0.33377669  1
  N  N12  1  0.16904913  0.24845782  0.83341758  1
  N  N13  1  0.49084537  0.24021109  0.50975599  1
  N  N14  1  0.34141728  -0.00052047  0.17003012  1
  N  N15  1  0.16954394  0.75110828  0.83402516  1
  N  N16  1  0.49119617  0.76098612  0.50942481  1
  N  N17  1  0.31210949  0.49913203  0.16003481  1
  N  N18  1  0.83928837  0.23962315  0.15545113  1
  N  N19  1  0.66928760  0.99931941  0.83220142  1
  N  N20  1  0.99054823  0.00112819  0.49637137  1
  N  N21  1  0.83892929  0.76141546  0.15638316  1
  N  N22  1  0.66819153  0.49954314  0.83343737  1
  N  N23  1  0.01834022  0.50222346  0.50819291  1
