# generated using pymatgen
data_HfTaTiNbVC5
_symmetry_space_group_name_H-M   'P 1'
_cell_length_a   7.02068898
_cell_length_b   4.44817238
_cell_length_c   7.01701528
_cell_angle_alpha   89.99895370
_cell_angle_beta   90.01085016
_cell_angle_gamma   90.00247566
_symmetry_Int_Tables_number   1
_chemical_formula_structural   HfTaTiNbVC5
_chemical_formula_sum   'Hf2 Ta2 Ti2 Nb2 V2 C10'
_cell_volume   219.13601376
_cell_formula_units_Z   2
loop_
 _symmetry_equiv_pos_site_id
 _symmetry_equiv_pos_as_xyz
  1  'x, y, z'
loop_
 _atom_site_type_symbol
 _atom_site_label
 _atom_site_symmetry_multiplicity
 _atom_site_fract_x
 _atom_site_fract_y
 _atom_site_fract_z
 _atom_site_occupancy
  Hf  Hf0  1  0.50084270  0.49956808  0.49808862  1
  Hf  Hf1  1  0.79914116  -0.00022155  0.60783971  1
  Ta  Ta2  1  0.19914213  0.99956118  0.39289510  1
  Ta  Ta3  1  0.89967488  0.49954818  0.28425300  1
  Ti  Ti4  1  0.30377494  0.49963866  0.09403778  1
  Ti  Ti5  1  0.60183335  -0.00035388  0.19025539  1
  Nb  Nb6  1  0.39932254  -0.00046021  0.81258152  1
  Nb  Nb7  1  0.09798781  0.49974160  0.71314356  1
  V  V8  1  0.70327488  0.50394670  0.90902927  1
  V  V9  1  0.99335376  0.00607809  0.99923643  1
  C  C10  1  0.70733160  0.99710199  0.91116391  1
  C  C11  1  0.49535370  0.99958958  0.49216806  1
  C  C12  1  0.60024400  0.49929343  0.18675926  1
  C  C13  1  0.90066577  -0.00056383  0.28881350  1
  C  C14  1  0.99543585  0.49600393  -0.00117566  1
  C  C15  1  0.29388070  0.99948525  0.10084716  1
  C  C16  1  0.40932620  0.49952907  0.81080348  1
  C  C17  1  0.80263806  0.49947475  0.60586533  1
  C  C18  1  0.10310371  0.99952822  0.70742339  1
  C  C19  1  0.19436951  0.49961917  0.39418714  1
