# generated using pymatgen
data_HfTaTiNbMoC5
_symmetry_space_group_name_H-M   'P 1'
_cell_length_a   7.06644362
_cell_length_b   4.47420155
_cell_length_c   7.06901863
_cell_angle_alpha   90.01247792
_cell_angle_beta   89.96834024
_cell_angle_gamma   89.99558887
_symmetry_Int_Tables_number   1
_chemical_formula_structural   HfTaTiNbMoC5
_chemical_formula_sum   'Hf2 Ta2 Ti2 Nb2 Mo2 C10'
_cell_volume   223.49895175
_cell_formula_units_Z   2
loop_
 _symmetry_equiv_pos_site_id
 _symmetry_equiv_pos_as_xyz
  1  'x, y, z'
loop_
 _atom_site_type_symbol
 _atom_site_label
 _atom_site_symmetry_multiplicity
 _atom_site_fract_x
 _atom_site_fract_y
 _atom_site_fract_z
 _atom_site_occupancy
  Hf  Hf0  1  0.59700843  1.00002886  0.20159918  1
  Hf  Hf1  1  0.90671294  0.49958319  0.30245608  1
  Ta  Ta2  1  0.39323413  0.00045341  0.79554652  1
  Ta  Ta3  1  0.69746456  0.50018197  0.89487522  1
  Ti  Ti4  1  0.49320333  0.50028646  0.49419363  1
  Ti  Ti5  1  0.20248665  0.00010646  0.39901046  1
  Nb  Nb6  1  0.80117623  1.00015355  0.60750001  1
  Nb  Nb7  1  0.10318645  0.50022380  0.70804074  1
  Mo  Mo8  1  0.28942677  0.49773976  0.10603258  1
  Mo  Mo9  1  0.01972580  0.99110615  0.00401736  1
  C  C10  1  0.70075504  0.00088237  0.89784307  1
  C  C11  1  0.49318096  0.00026205  0.50398598  1
  C  C12  1  0.59179886  0.50036105  0.19732742  1
  C  C13  1  0.91075310  0.00020496  0.29730402  1
  C  C14  1  0.00036474  0.50554643  0.99641336  1
  C  C15  1  0.29465087  0.00273802  0.09787409  1
  C  C16  1  0.40150732  0.50075349  0.79888321  1
  C  C17  1  0.79277985  0.50017895  0.60366779  1
  C  C18  1  0.10116264  1.00070821  0.69846731  1
  C  C19  1  0.21043561  0.50056909  0.39643215  1
