# generated using pymatgen
data_HfTaTiNbMoC5
_symmetry_space_group_name_H-M   'P 1'
_cell_length_a   7.06780944
_cell_length_b   4.47136755
_cell_length_c   7.07148474
_cell_angle_alpha   89.99181709
_cell_angle_beta   89.97703531
_cell_angle_gamma   89.99198750
_symmetry_Int_Tables_number   1
_chemical_formula_structural   HfTaTiNbMoC5
_chemical_formula_sum   'Hf2 Ta2 Ti2 Nb2 Mo2 C10'
_cell_volume   223.47851031
_cell_formula_units_Z   2
loop_
 _symmetry_equiv_pos_site_id
 _symmetry_equiv_pos_as_xyz
  1  'x, y, z'
loop_
 _atom_site_type_symbol
 _atom_site_label
 _atom_site_symmetry_multiplicity
 _atom_site_fract_x
 _atom_site_fract_y
 _atom_site_fract_z
 _atom_site_occupancy
  Hf  Hf0  1  0.59715458  1.00051153  0.20176621  1
  Hf  Hf1  1  0.90648070  0.49986380  0.30255732  1
  Ta  Ta2  1  0.39358803  0.99959993  0.79541430  1
  Ta  Ta3  1  0.69783344  0.49978838  0.89520083  1
  Ti  Ti4  1  0.49326156  0.49969520  0.49403194  1
  Ti  Ti5  1  0.20217742  1.00025460  0.39926885  1
  Nb  Nb6  1  0.80126644  0.99988792  0.60746578  1
  Nb  Nb7  1  0.10316430  0.49963216  0.70806466  1
  Mo  Mo8  1  0.28882899  0.51033213  0.10520351  1
  Mo  Mo9  1  0.01989605  1.00219984  0.00356052  1
  C  C10  1  0.70052792  -0.00076937  0.89802095  1
  C  C11  1  0.49328489  -0.00065853  0.50379202  1
  C  C12  1  0.59192645  0.49958549  0.19754452  1
  C  C13  1  0.91063218  0.99985830  0.29732610  1
  C  C14  1  0.00013019  0.49800272  0.99617435  1
  C  C15  1  0.29474670  0.99386241  0.09783008  1
  C  C16  1  0.40153022  0.49884216  0.79891968  1
  C  C17  1  0.79294075  0.49975072  0.60357210  1
  C  C18  1  0.10119409  0.99953524  0.69821864  1
  C  C19  1  0.21034860  0.49895308  0.39639755  1
