# generated using pymatgen
data_HfTaTiNbVC5
_symmetry_space_group_name_H-M   'P 1'
_cell_length_a   7.01755555
_cell_length_b   4.45007320
_cell_length_c   7.01503457
_cell_angle_alpha   89.99970188
_cell_angle_beta   90.01349368
_cell_angle_gamma   90.00050594
_symmetry_Int_Tables_number   1
_chemical_formula_structural   HfTaTiNbVC5
_chemical_formula_sum   'Hf2 Ta2 Ti2 Nb2 V2 C10'
_cell_volume   219.06995451
_cell_formula_units_Z   2
loop_
 _symmetry_equiv_pos_site_id
 _symmetry_equiv_pos_as_xyz
  1  'x, y, z'
loop_
 _atom_site_type_symbol
 _atom_site_label
 _atom_site_symmetry_multiplicity
 _atom_site_fract_x
 _atom_site_fract_y
 _atom_site_fract_z
 _atom_site_occupancy
  Hf  Hf0  1  0.50069549  0.49981621  0.49822246  1
  Hf  Hf1  1  0.79953618  -0.00016520  0.60805038  1
  Ta  Ta2  1  0.19880699  0.99984407  0.39291251  1
  Ta  Ta3  1  0.89955363  0.49986283  0.28428771  1
  Ti  Ti4  1  0.30342051  0.50001934  0.09413280  1
  Ti  Ti5  1  0.60163002  0.99978302  0.19035252  1
  Nb  Nb6  1  0.39931401  -0.00022445  0.81297719  1
  Nb  Nb7  1  0.09822507  0.50001315  0.71328423  1
  V  V8  1  0.70327753  0.50002041  0.90919589  1
  V  V9  1  0.99346008  0.00567234  0.99919185  1
  C  C10  1  0.70715333  0.99907971  0.91099768  1
  C  C11  1  0.49534368  0.99985254  0.49254513  1
  C  C12  1  0.60009083  0.50001898  0.18685267  1
  C  C13  1  0.90042197  0.99962968  0.28870845  1
  C  C14  1  0.99555186  0.49642286  -0.00122529  1
  C  C15  1  0.29377706  0.99958227  0.10073567  1
  C  C16  1  0.40937193  0.49972706  0.81064048  1
  C  C17  1  0.80251175  0.49990322  0.60590331  1
  C  C18  1  0.10329139  0.99979435  0.70768403  1
  C  C19  1  0.19438199  0.49986930  0.39428141  1
