# generated using pymatgen
data_HfTaTiNbVC5
_symmetry_space_group_name_H-M   'P 1'
_cell_length_a   7.01703343
_cell_length_b   4.45062336
_cell_length_c   7.01466807
_cell_angle_alpha   90.00126762
_cell_angle_beta   90.01453690
_cell_angle_gamma   90.00076194
_symmetry_Int_Tables_number   1
_chemical_formula_structural   HfTaTiNbVC5
_chemical_formula_sum   'Hf2 Ta2 Ti2 Nb2 V2 C10'
_cell_volume   219.06928959
_cell_formula_units_Z   2
loop_
 _symmetry_equiv_pos_site_id
 _symmetry_equiv_pos_as_xyz
  1  'x, y, z'
loop_
 _atom_site_type_symbol
 _atom_site_label
 _atom_site_symmetry_multiplicity
 _atom_site_fract_x
 _atom_site_fract_y
 _atom_site_fract_z
 _atom_site_occupancy
  Hf  Hf0  1  0.50072644  0.49997832  0.49811312  1
  Hf  Hf1  1  0.79948455  0.99995904  0.60800297  1
  Ta  Ta2  1  0.19879693  0.99994451  0.39294003  1
  Ta  Ta3  1  0.89949312  0.49993320  0.28421700  1
  Ti  Ti4  1  0.30338261  0.50000657  0.09413954  1
  Ti  Ti5  1  0.60165450  0.99986239  0.19036627  1
  Nb  Nb6  1  0.39934193  -0.00015639  0.81295032  1
  Nb  Nb7  1  0.09816986  0.50015565  0.71326026  1
  V  V8  1  0.70317426  0.50120449  0.90906404  1
  V  V9  1  0.99349603  0.00579616  0.99904352  1
  C  C10  1  0.70716953  0.99871123  0.91100810  1
  C  C11  1  0.49534983  -0.00002064  0.49245369  1
  C  C12  1  0.60005412  0.49993838  0.18681747  1
  C  C13  1  0.90042171  -0.00029783  0.28865281  1
  C  C14  1  0.99546262  0.49643892  -0.00124206  1
  C  C15  1  0.29362888  -0.00023241  0.10069913  1
  C  C16  1  0.40927690  0.49984119  0.81061648  1
  C  C17  1  0.80257034  0.49998282  0.60582029  1
  C  C18  1  0.10328150  0.99999794  0.70763823  1
  C  C19  1  0.19441833  0.49992683  0.39426244  1
