# generated using pymatgen
data_HfTaTiNbVC5
_symmetry_space_group_name_H-M   'P 1'
_cell_length_a   7.01638766
_cell_length_b   4.45131216
_cell_length_c   7.01450059
_cell_angle_alpha   90.00023753
_cell_angle_beta   90.01725871
_cell_angle_gamma   89.99787143
_symmetry_Int_Tables_number   1
_chemical_formula_structural   HfTaTiNbVC5
_chemical_formula_sum   'Hf2 Ta2 Ti2 Nb2 V2 C10'
_cell_volume   219.07779574
_cell_formula_units_Z   2
loop_
 _symmetry_equiv_pos_site_id
 _symmetry_equiv_pos_as_xyz
  1  'x, y, z'
loop_
 _atom_site_type_symbol
 _atom_site_label
 _atom_site_symmetry_multiplicity
 _atom_site_fract_x
 _atom_site_fract_y
 _atom_site_fract_z
 _atom_site_occupancy
  Hf  Hf0  1  0.50076968  0.49996307  0.49826836  1
  Hf  Hf1  1  0.79948473  1.00007176  0.60815445  1
  Ta  Ta2  1  0.19884753  -0.00003198  0.39307509  1
  Ta  Ta3  1  0.89955285  0.49997475  0.28434444  1
  Ti  Ti4  1  0.30341030  0.50016922  0.09426607  1
  Ti  Ti5  1  0.60170372  -0.00003895  0.19043811  1
  Nb  Nb6  1  0.39927004  1.00004693  0.81307421  1
  Nb  Nb7  1  0.09814668  0.50007607  0.71334869  1
  V  V8  1  0.70309942  0.50271164  0.90924040  1
  V  V9  1  0.99345971  1.00417147  0.99908803  1
  C  C10  1  0.70722250  0.99822858  0.91115934  1
  C  C11  1  0.49535395  -0.00005261  0.49258336  1
  C  C12  1  0.60003831  0.49974325  0.18701855  1
  C  C13  1  0.90043295  -0.00015119  0.28883460  1
  C  C14  1  0.99544338  0.49732372  -0.00109024  1
  C  C15  1  0.29354856  0.99976456  0.10081884  1
  C  C16  1  0.40921758  0.49977345  0.81074760  1
  C  C17  1  0.80256252  0.49992279  0.60593226  1
  C  C18  1  0.10324135  0.99990608  0.70783290  1
  C  C19  1  0.19437935  0.49998031  0.39441832  1
