# generated using pymatgen
data_HfTaTiNbMoC5
_symmetry_space_group_name_H-M   'P 1'
_cell_length_a   7.06538372
_cell_length_b   4.47436907
_cell_length_c   7.06913447
_cell_angle_alpha   89.98120371
_cell_angle_beta   89.97417045
_cell_angle_gamma   90.00223638
_symmetry_Int_Tables_number   1
_chemical_formula_structural   HfTaTiNbMoC5
_chemical_formula_sum   'Hf2 Ta2 Ti2 Nb2 Mo2 C10'
_cell_volume   223.47746319
_cell_formula_units_Z   2
loop_
 _symmetry_equiv_pos_site_id
 _symmetry_equiv_pos_as_xyz
  1  'x, y, z'
loop_
 _atom_site_type_symbol
 _atom_site_label
 _atom_site_symmetry_multiplicity
 _atom_site_fract_x
 _atom_site_fract_y
 _atom_site_fract_z
 _atom_site_occupancy
  Hf  Hf0  1  0.59703217  0.00036430  0.20173055  1
  Hf  Hf1  1  0.90650013  0.50087976  0.30245131  1
  Ta  Ta2  1  0.39344136  -0.00042490  0.79551065  1
  Ta  Ta3  1  0.69762982  0.49976336  0.89483341  1
  Ti  Ti4  1  0.49324133  0.49993734  0.49417646  1
  Ti  Ti5  1  0.20230504  0.00019631  0.39909689  1
  Nb  Nb6  1  0.80126900  -0.00013825  0.60747268  1
  Nb  Nb7  1  0.10336900  0.49981669  0.70767117  1
  Mo  Mo8  1  0.29062244  0.50824702  0.10594810  1
  Mo  Mo9  1  0.01923896  0.01182999  0.00371131  1
  C  C10  1  0.70107395  -0.00086896  0.89798918  1
  C  C11  1  0.49316783  -0.00021788  0.50391668  1
  C  C12  1  0.59170192  0.49963751  0.19743797  1
  C  C13  1  0.91076400  0.00014629  0.29736294  1
  C  C14  1  -0.00025896  0.49367873  0.99617313  1
  C  C15  1  0.29445292  0.99367061  0.09792995  1
  C  C16  1  0.40157736  0.49904466  0.79876288  1
  C  C17  1  0.79280389  0.50003385  0.60352896  1
  C  C18  1  0.10123677  -0.00084503  0.69842313  1
  C  C19  1  0.21032547  0.49928265  0.39643985  1
