# generated using pymatgen
data_HfTaTiNbWC5
_symmetry_space_group_name_H-M   'P 1'
_cell_length_a   7.08554655
_cell_length_b   4.46710457
_cell_length_c   7.06702044
_cell_angle_alpha   89.99413639
_cell_angle_beta   89.98478931
_cell_angle_gamma   89.99178981
_symmetry_Int_Tables_number   1
_chemical_formula_structural   HfTaTiNbWC5
_chemical_formula_sum   'Hf2 Ta2 Ti2 Nb2 W2 C10'
_cell_volume   223.68445310
_cell_formula_units_Z   2
loop_
 _symmetry_equiv_pos_site_id
 _symmetry_equiv_pos_as_xyz
  1  'x, y, z'
loop_
 _atom_site_type_symbol
 _atom_site_label
 _atom_site_symmetry_multiplicity
 _atom_site_fract_x
 _atom_site_fract_y
 _atom_site_fract_z
 _atom_site_occupancy
  Hf  Hf0  1  0.40140778  0.00009157  0.80356550  1
  Hf  Hf1  1  0.10397857  0.50055437  0.69362924  1
  Ta  Ta2  1  0.69956949  0.50000990  0.90663928  1
  Ta  Ta3  1  -0.00394964  -0.00023655  0.01292161  1
  Ti  Ti4  1  0.29645341  0.50110959  0.10855743  1
  Ti  Ti5  1  0.59231925  0.99996269  0.20312408  1
  Nb  Nb6  1  0.50813929  0.50031636  0.49373709  1
  Nb  Nb7  1  0.80563709  -0.00032007  0.58894202  1
  W  W8  1  0.21290055  0.00736631  0.38939163  1
  W  W9  1  0.88737822  0.49159091  0.29274546  1
  C  C10  1  0.70480514  0.00005417  0.90747849  1
  C  C11  1  0.49682789  -0.00049434  0.49133318  1
  C  C12  1  0.60020630  0.50043717  0.19796498  1
  C  C13  1  0.89963125  0.00189955  0.29973717  1
  C  C14  1  0.00027013  0.50069794  0.01019999  1
  C  C15  1  0.29786140  0.99911646  0.10832174  1
  C  C16  1  0.40511787  0.49986086  0.80769923  1
  C  C17  1  0.79859388  0.50008234  0.59669809  1
  C  C18  1  0.09793069  -0.00011769  0.69667585  1
  C  C19  1  0.19562954  0.49801230  0.38958224  1
