# generated using pymatgen
data_HfTaTiNbWC5
_symmetry_space_group_name_H-M   'P 1'
_cell_length_a   7.08651646
_cell_length_b   4.46724029
_cell_length_c   7.06667392
_cell_angle_alpha   89.99631197
_cell_angle_beta   89.97544583
_cell_angle_gamma   89.99232933
_symmetry_Int_Tables_number   1
_chemical_formula_structural   HfTaTiNbWC5
_chemical_formula_sum   'Hf2 Ta2 Ti2 Nb2 W2 C10'
_cell_volume   223.71088768
_cell_formula_units_Z   2
loop_
 _symmetry_equiv_pos_site_id
 _symmetry_equiv_pos_as_xyz
  1  'x, y, z'
loop_
 _atom_site_type_symbol
 _atom_site_label
 _atom_site_symmetry_multiplicity
 _atom_site_fract_x
 _atom_site_fract_y
 _atom_site_fract_z
 _atom_site_occupancy
  Hf  Hf0  1  0.40138170  0.00015826  0.80387400  1
  Hf  Hf1  1  0.10428821  0.50055801  0.69383721  1
  Ta  Ta2  1  0.69955289  0.50008314  0.90647465  1
  Ta  Ta3  1  -0.00394348  0.99979762  0.01288042  1
  Ti  Ti4  1  0.29639736  0.50097618  0.10863692  1
  Ti  Ti5  1  0.59224174  0.00008099  0.20297186  1
  Nb  Nb6  1  0.50812993  0.50050820  0.49386453  1
  Nb  Nb7  1  0.80585533  -0.00021292  0.58893361  1
  W  W8  1  0.21358179  0.00648083  0.38985400  1
  W  W9  1  0.88687286  0.49232920  0.29309383  1
  C  C10  1  0.70490859  0.00009675  0.90736662  1
  C  C11  1  0.49705632  0.99960342  0.49129740  1
  C  C12  1  0.60006016  0.50041041  0.19769745  1
  C  C13  1  0.89947684  0.00182781  0.29946739  1
  C  C14  1  0.00021442  0.50054487  0.01038078  1
  C  C15  1  0.29766260  -0.00073258  0.10847573  1
  C  C16  1  0.40517148  0.49995383  0.80769706  1
  C  C17  1  0.79874738  0.50039817  0.59653384  1
  C  C18  1  0.09803838  1.00003144  0.69658471  1
  C  C19  1  0.19584305  0.49790017  0.38955820  1
