# generated using pymatgen
data_HfTaTiNbWC5
_symmetry_space_group_name_H-M   'P 1'
_cell_length_a   7.08586373
_cell_length_b   4.46648395
_cell_length_c   7.06711802
_cell_angle_alpha   89.99701878
_cell_angle_beta   89.98394657
_cell_angle_gamma   89.99528960
_symmetry_Int_Tables_number   1
_chemical_formula_structural   HfTaTiNbWC5
_chemical_formula_sum   'Hf2 Ta2 Ti2 Nb2 W2 C10'
_cell_volume   223.66647733
_cell_formula_units_Z   2
loop_
 _symmetry_equiv_pos_site_id
 _symmetry_equiv_pos_as_xyz
  1  'x, y, z'
loop_
 _atom_site_type_symbol
 _atom_site_label
 _atom_site_symmetry_multiplicity
 _atom_site_fract_x
 _atom_site_fract_y
 _atom_site_fract_z
 _atom_site_occupancy
  Hf  Hf0  1  0.40144306  -0.00003381  0.80364043  1
  Hf  Hf1  1  0.10381681  0.50036573  0.69355815  1
  Ta  Ta2  1  0.69964912  0.49983431  0.90663286  1
  Ta  Ta3  1  -0.00401437  1.00006675  0.01314090  1
  Ti  Ti4  1  0.29644229  0.50077945  0.10875199  1
  Ti  Ti5  1  0.59248683  0.99984808  0.20318760  1
  Nb  Nb6  1  0.50791167  0.50016862  0.49365457  1
  Nb  Nb7  1  0.80556811  0.00019536  0.58866463  1
  W  W8  1  0.21288309  0.00669636  0.38959350  1
  W  W9  1  0.88710826  0.50287362  0.29316662  1
  C  C10  1  0.70480985  0.99978932  0.90742246  1
  C  C11  1  0.49674978  0.99937784  0.49142528  1
  C  C12  1  0.60017193  0.49913100  0.19806729  1
  C  C13  1  0.89971521  -0.00226770  0.29990283  1
  C  C14  1  0.00017965  0.49975982  0.01031098  1
  C  C15  1  0.29789237  -0.00114002  0.10830232  1
  C  C16  1  0.40511869  0.49980313  0.80773039  1
  C  C17  1  0.79850492  0.49961055  0.59662565  1
  C  C18  1  0.09788084  -0.00033933  0.69681015  1
  C  C19  1  0.19558764  0.49620199  0.38963660  1
