# generated using pymatgen
data_HfTaTiNbMoC5
_symmetry_space_group_name_H-M   'P 1'
_cell_length_a   7.06513175
_cell_length_b   4.47433742
_cell_length_c   7.06810452
_cell_angle_alpha   90.00534283
_cell_angle_beta   89.97566377
_cell_angle_gamma   90.00068951
_symmetry_Int_Tables_number   1
_chemical_formula_structural   HfTaTiNbMoC5
_chemical_formula_sum   'Hf2 Ta2 Ti2 Nb2 Mo2 C10'
_cell_volume   223.43536793
_cell_formula_units_Z   2
loop_
 _symmetry_equiv_pos_site_id
 _symmetry_equiv_pos_as_xyz
  1  'x, y, z'
loop_
 _atom_site_type_symbol
 _atom_site_label
 _atom_site_symmetry_multiplicity
 _atom_site_fract_x
 _atom_site_fract_y
 _atom_site_fract_z
 _atom_site_occupancy
  Hf  Hf0  1  0.59700180  -0.00011435  0.20158829  1
  Hf  Hf1  1  0.90648610  0.50006659  0.30230744  1
  Ta  Ta2  1  0.39325985  1.00015581  0.79531834  1
  Ta  Ta3  1  0.69764460  0.50020631  0.89485570  1
  Ti  Ti4  1  0.49325840  0.50014895  0.49399080  1
  Ti  Ti5  1  0.20243354  1.00004446  0.39868209  1
  Nb  Nb6  1  0.80129869  0.00012581  0.60747251  1
  Nb  Nb7  1  0.10316412  0.49998916  0.70828299  1
  Mo  Mo8  1  0.28896885  0.49643364  0.10576640  1
  Mo  Mo9  1  0.01993721  0.99762059  0.00474697  1
  C  C10  1  0.70057433  0.00050932  0.89769560  1
  C  C11  1  0.49316769  1.00028142  0.50385635  1
  C  C12  1  0.59180633  0.50036206  0.19730764  1
  C  C13  1  0.91071435  1.00010015  0.29719833  1
  C  C14  1  0.00007909  0.50134102  0.99625177  1
  C  C15  1  0.29474994  0.00273798  0.09784855  1
  C  C16  1  0.40156238  0.50052803  0.79873395  1
  C  C17  1  0.79280588  0.50016004  0.60356202  1
  C  C18  1  0.10111394  0.00016033  0.69848371  1
  C  C19  1  0.21031466  0.50036133  0.39638567  1
