# generated using pymatgen
data_Ti4VC5
_symmetry_space_group_name_H-M   'P 1'
_cell_length_a   6.80997978
_cell_length_b   6.81072191
_cell_length_c   8.60923077
_cell_angle_alpha   89.98987446
_cell_angle_beta   90.02297710
_cell_angle_gamma   90.00209876
_symmetry_Int_Tables_number   1
_chemical_formula_structural   Ti4VC5
_chemical_formula_sum   'Ti16 V4 C20'
_cell_volume   399.30364733
_cell_formula_units_Z   4
loop_
 _symmetry_equiv_pos_site_id
 _symmetry_equiv_pos_as_xyz
  1  'x, y, z'
loop_
 _atom_site_type_symbol
 _atom_site_label
 _atom_site_symmetry_multiplicity
 _atom_site_fract_x
 _atom_site_fract_y
 _atom_site_fract_z
 _atom_site_occupancy
  Ti  Ti0  1  0.20082579  0.60241464  0.99898370  1
  Ti  Ti1  1  0.30051127  0.90073414  0.25076508  1
  Ti  Ti2  1  0.19955247  0.59981018  0.49970154  1
  Ti  Ti3  1  0.39829018  0.19758680  0.99796912  1
  Ti  Ti4  1  0.50189780  0.49773612  0.25130766  1
  Ti  Ti5  1  0.59945106  0.80086751  0.99612195  1
  Ti  Ti6  1  0.70326915  0.10133274  0.25294004  1
  Ti  Ti7  1  0.89835079  0.69978587  0.25269768  1
  Ti  Ti8  1  0.39966557  0.20077118  0.50125774  1
  Ti  Ti9  1  0.50211479  0.50174892  0.74897126  1
  Ti  Ti10  1  0.60195207  0.79967752  0.50320543  1
  Ti  Ti11  1  0.69884977  0.09752871  0.74925479  1
  Ti  Ti12  1  0.80151804  0.40305909  0.99750027  1
  Ti  Ti13  1  -0.00061700  0.99790962  1.00032209  1
  Ti  Ti14  1  0.09723445  0.29970583  0.25264488  1
  Ti  Ti15  1  0.09951596  0.30186157  0.74884103  1
  V  V16  1  0.28664636  0.90063626  0.74356481  1
  V  V17  1  0.90971974  0.70305282  0.74136481  1
  V  V18  1  0.80187877  0.39236277  0.50583610  1
  V  V19  1  1.00335075  0.99697396  0.50751482  1
  C  C20  1  0.39702125  0.19438555  0.74924289  1
  C  C21  1  0.50020206  0.49976399  0.99940100  1
  C  C22  1  0.39985793  0.19932869  0.25059734  1
  C  C23  1  0.50540811  0.49818016  0.50080842  1
  C  C24  1  0.59983459  0.80034448  0.74949680  1
  C  C25  1  0.70121307  0.10140517  0.99993616  1
  C  C26  1  0.80218739  0.40545275  0.74359519  1
  C  C27  1  0.89908308  0.70052481  0.99420522  1
  C  C28  1  0.09898992  0.29974301  0.99950388  1
  C  C29  1  0.59954454  0.80113300  0.25074647  1
  C  C30  1  0.70777278  0.10512332  0.50178686  1
  C  C31  1  0.80061271  0.40193852  0.25519550  1
  C  C32  1  0.90055880  0.70167219  0.50584114  1
  C  C33  1  0.00341106  0.99263624  0.74439846  1
  C  C34  1  0.09202798  0.29706226  0.50097110  1
  C  C35  1  0.19674261  0.60765138  0.74855600  1
  C  C36  1  0.29902212  0.90012466  0.99421758  1
  C  C37  1  1.00059463  -0.00164945  0.25580912  1
  C  C38  1  0.19972754  0.60051333  0.24985457  1
  C  C39  1  0.29483280  0.90219979  0.50514501  1
