# generated using pymatgen
data_Ti7W3C10
_symmetry_space_group_name_H-M   'P 1'
_cell_length_a   6.86508490
_cell_length_b   6.87202243
_cell_length_c   8.68655043
_cell_angle_alpha   89.98153512
_cell_angle_beta   89.99733646
_cell_angle_gamma   89.92887130
_symmetry_Int_Tables_number   1
_chemical_formula_structural   Ti7W3C10
_chemical_formula_sum   'Ti14 W6 C20'
_cell_volume   409.80520340
_cell_formula_units_Z   2
loop_
 _symmetry_equiv_pos_site_id
 _symmetry_equiv_pos_as_xyz
  1  'x, y, z'
loop_
 _atom_site_type_symbol
 _atom_site_label
 _atom_site_symmetry_multiplicity
 _atom_site_fract_x
 _atom_site_fract_y
 _atom_site_fract_z
 _atom_site_occupancy
  Ti  Ti0  1  0.19979675  0.59819517  0.99871542  1
  Ti  Ti1  1  0.30292368  0.89516117  0.25270899  1
  Ti  Ti2  1  0.20122038  0.59865641  0.50014302  1
  Ti  Ti3  1  0.29654504  0.89665189  0.74572152  1
  Ti  Ti4  1  0.39531706  0.20162599  0.99507492  1
  Ti  Ti5  1  0.49863551  0.50141544  0.24961039  1
  Ti  Ti6  1  0.40292200  0.19553105  0.50483914  1
  Ti  Ti7  1  0.49748886  0.49660036  0.74896772  1
  Ti  Ti8  1  0.60165133  0.80293273  0.50484921  1
  Ti  Ti9  1  0.80408815  0.40470073  1.00265239  1
  Ti  Ti10  1  0.90240835  0.69637618  0.75055923  1
  Ti  Ti11  1  0.00665331  0.99849837  0.99692470  1
  Ti  Ti12  1  0.00144985  1.00276702  0.50322569  1
  Ti  Ti13  1  0.09994862  0.30356672  0.74755992  1
  W  W14  1  0.58912489  0.79289032  0.99079336  1
  W  W15  1  0.68932843  0.09871382  0.24474743  1
  W  W16  1  0.90090690  0.71511242  0.24972179  1
  W  W17  1  0.70620126  0.10551487  0.76134550  1
  W  W18  1  0.10443719  0.29460165  0.25355647  1
  W  W19  1  0.79047127  0.40573929  0.49199092  1
  C  C20  1  0.40118461  0.19727045  0.74993560  1
  C  C21  1  0.50077485  0.49916006  0.00055772  1
  C  C22  1  0.40089166  0.19921440  0.24996620  1
  C  C23  1  0.50033816  0.49806782  0.50012770  1
  C  C24  1  0.60102024  0.79959965  0.74991943  1
  C  C25  1  0.70139553  0.09933798  1.00278430  1
  C  C26  1  0.80012791  0.39999243  0.75116901  1
  C  C27  1  0.90017340  0.70162919  1.00122675  1
  C  C28  1  0.09913789  0.30035232  0.00089139  1
  C  C29  1  0.60198806  0.79874376  0.25055635  1
  C  C30  1  0.70200772  0.10031062  0.50009974  1
  C  C31  1  0.80089723  0.40038570  0.24944952  1
  C  C32  1  0.90009242  0.69983299  0.50003284  1
  C  C33  1  0.99917620  1.00058421  0.75000220  1
  C  C34  1  0.09854016  0.30032368  0.49980209  1
  C  C35  1  0.20003543  0.59886726  0.74954901  1
  C  C36  1  0.30216877  0.90021338  1.00021532  1
  C  C37  1  1.00018009  0.00254230  0.24996883  1
  C  C38  1  0.19898724  0.59954335  0.24979368  1
  C  C39  1  0.30081318  0.89928449  0.49900987  1
