# generated using pymatgen
data_HfTaTiNbWC5
_symmetry_space_group_name_H-M   'P 1'
_cell_length_a   7.08309005
_cell_length_b   4.47047344
_cell_length_c   7.06324632
_cell_angle_alpha   89.99685610
_cell_angle_beta   89.97393302
_cell_angle_gamma   90.00058550
_symmetry_Int_Tables_number   1
_chemical_formula_structural   HfTaTiNbWC5
_chemical_formula_sum   'Hf2 Ta2 Ti2 Nb2 W2 C10'
_cell_volume   223.65601801
_cell_formula_units_Z   2
loop_
 _symmetry_equiv_pos_site_id
 _symmetry_equiv_pos_as_xyz
  1  'x, y, z'
loop_
 _atom_site_type_symbol
 _atom_site_label
 _atom_site_symmetry_multiplicity
 _atom_site_fract_x
 _atom_site_fract_y
 _atom_site_fract_z
 _atom_site_occupancy
  Hf  Hf0  1  0.40178238  -0.00017596  0.80362975  1
  Hf  Hf1  1  0.10371244  0.49997501  0.69329438  1
  Ta  Ta2  1  0.69999016  0.49960236  0.90675930  1
  Ta  Ta3  1  -0.00384131  0.99992147  0.01329905  1
  Ti  Ti4  1  0.29666023  0.50055096  0.10877121  1
  Ti  Ti5  1  0.59265467  0.99968496  0.20319926  1
  Nb  Nb6  1  0.50787234  0.50009445  0.49336720  1
  Nb  Nb7  1  0.80566295  0.00005580  0.58856358  1
  W  W8  1  0.21288209  0.00608171  0.38960890  1
  W  W9  1  0.88739534  0.50888728  0.29339161  1
  C  C10  1  0.70507078  0.99962638  0.90742759  1
  C  C11  1  0.49645147  -0.00078796  0.49151775  1
  C  C12  1  0.60034095  0.49899957  0.19836622  1
  C  C13  1  0.89942438  -0.00473118  0.29996779  1
  C  C14  1  0.00021716  0.49905002  0.01019942  1
  C  C15  1  0.29818343  0.99875791  0.10817833  1
  C  C16  1  0.40541513  0.49965975  0.80781379  1
  C  C17  1  0.79829881  0.49916550  0.59674801  1
  C  C18  1  0.09790579  -0.00063249  0.69684523  1
  C  C19  1  0.19514350  0.49551670  0.38931124  1
