# generated using pymatgen
data_Ti9WC10
_symmetry_space_group_name_H-M   'P 1'
_cell_length_a   6.87010994
_cell_length_b   6.86902277
_cell_length_c   8.68188667
_cell_angle_alpha   89.99906052
_cell_angle_beta   90.00173920
_cell_angle_gamma   90.01826230
_symmetry_Int_Tables_number   1
_chemical_formula_structural   Ti9WC10
_chemical_formula_sum   'Ti18 W2 C20'
_cell_volume   409.70638556
_cell_formula_units_Z   2
loop_
 _symmetry_equiv_pos_site_id
 _symmetry_equiv_pos_as_xyz
  1  'x, y, z'
loop_
 _atom_site_type_symbol
 _atom_site_label
 _atom_site_symmetry_multiplicity
 _atom_site_fract_x
 _atom_site_fract_y
 _atom_site_fract_z
 _atom_site_occupancy
  Ti  Ti0  1  0.19882038  0.60149979  -0.00243848  1
  Ti  Ti1  1  0.30148021  0.89673780  0.25008958  1
  Ti  Ti2  1  0.19782240  0.60155723  0.50233847  1
  Ti  Ti3  1  0.40026702  0.19988304  0.00443328  1
  Ti  Ti4  1  0.49841705  0.50351030  0.24990049  1
  Ti  Ti5  1  0.60110694  0.79937091  -0.00244277  1
  Ti  Ti6  1  0.69962863  0.09654230  0.25072779  1
  Ti  Ti7  1  0.89937581  0.69952882  0.25037604  1
  Ti  Ti8  1  0.39991292  0.19996885  0.49556774  1
  Ti  Ti9  1  0.60173425  0.79823286  0.50243405  1
  Ti  Ti10  1  0.70322761  0.09788358  0.74988903  1
  Ti  Ti11  1  0.80091992  0.39872888  0.00409936  1
  Ti  Ti12  1  0.89938745  0.69981212  0.75025723  1
  Ti  Ti13  1  0.99828480  0.00137675  0.00411984  1
  Ti  Ti14  1  0.10126734  0.30365529  0.24973367  1
  Ti  Ti15  1  0.80140416  0.39834414  0.49601080  1
  Ti  Ti16  1  0.99886646  0.00196195  0.49596197  1
  Ti  Ti17  1  0.09687133  0.30252147  0.75030364  1
  W  W18  1  0.29315411  0.90815103  0.74978320  1
  W  W19  1  0.50586904  0.49143465  0.74976065  1
  C  C20  1  0.39994591  0.19980580  0.74997459  1
  C  C21  1  0.49970935  0.50014264  0.99892779  1
  C  C22  1  0.40006183  0.20007739  0.24987091  1
  C  C23  1  0.49969246  0.50007214  0.50090505  1
  C  C24  1  0.60012027  0.79921400  0.75003452  1
  C  C25  1  0.69953541  0.09994802  0.99940608  1
  C  C26  1  0.79983454  0.39985922  0.74988468  1
  C  C27  1  0.90017657  0.70009419  0.99938440  1
  C  C28  1  0.10075484  0.30031532  0.99943611  1
  C  C29  1  0.60023150  0.79930161  0.24999771  1
  C  C30  1  0.69939723  0.09978484  0.50061048  1
  C  C31  1  0.79925545  0.39967934  0.24995079  1
  C  C32  1  0.90015017  0.70014948  0.50073367  1
  C  C33  1  0.00048518  0.00017689  0.74996953  1
  C  C34  1  0.10064065  0.30052138  0.50056884  1
  C  C35  1  0.20025968  0.60083157  0.75002845  1
  C  C36  1  0.30066027  0.90016200  0.99900585  1
  C  C37  1  0.00112100  0.00053046  0.24985642  1
  C  C38  1  0.19992930  0.60111336  0.24999576  1
  C  C39  1  0.30056183  0.90018839  0.50090621  1
