# generated using pymatgen
data_HfTaTiNbWC5
_symmetry_space_group_name_H-M   'P 1'
_cell_length_a   7.08446619
_cell_length_b   4.47023679
_cell_length_c   7.06403704
_cell_angle_alpha   89.99647128
_cell_angle_beta   89.97246851
_cell_angle_gamma   89.99212852
_symmetry_Int_Tables_number   1
_chemical_formula_structural   HfTaTiNbWC5
_chemical_formula_sum   'Hf2 Ta2 Ti2 Nb2 W2 C10'
_cell_volume   223.71266581
_cell_formula_units_Z   2
loop_
 _symmetry_equiv_pos_site_id
 _symmetry_equiv_pos_as_xyz
  1  'x, y, z'
loop_
 _atom_site_type_symbol
 _atom_site_label
 _atom_site_symmetry_multiplicity
 _atom_site_fract_x
 _atom_site_fract_y
 _atom_site_fract_z
 _atom_site_occupancy
  Hf  Hf0  1  0.40176760  1.00035468  0.80354791  1
  Hf  Hf1  1  0.10379487  0.50042023  0.69329534  1
  Ta  Ta2  1  0.69994189  0.50042211  0.90671886  1
  Ta  Ta3  1  -0.00384096  -0.00001868  0.01313879  1
  Ti  Ti4  1  0.29653936  0.50053632  0.10865717  1
  Ti  Ti5  1  0.59279122  0.00036671  0.20304403  1
  Nb  Nb6  1  0.50786320  0.50057583  0.49322683  1
  Nb  Nb7  1  0.80564501  0.99994932  0.58859564  1
  W  W8  1  0.21348741  1.00124399  0.38944114  1
  W  W9  1  0.88713663  0.48821803  0.29350453  1
  C  C10  1  0.70508885  1.00039186  0.90737473  1
  C  C11  1  0.49649926  1.00056264  0.49145286  1
  C  C12  1  0.60027843  0.50101978  0.19817314  1
  C  C13  1  0.89956285  0.00360105  0.29990104  1
  C  C14  1  0.00025854  0.50116374  0.01013088  1
  C  C15  1  0.29825003  0.00020543  0.10812029  1
  C  C16  1  0.40541777  0.50034828  0.80769716  1
  C  C17  1  0.79830578  0.50086552  0.59667180  1
  C  C18  1  0.09793226  0.00033773  0.69680171  1
  C  C19  1  0.19504524  0.50111057  0.38918567  1
