# generated using pymatgen
data_Ti4MoC5
_symmetry_space_group_name_H-M   'P 1'
_cell_length_a   6.85204184
_cell_length_b   6.85602351
_cell_length_c   8.67573504
_cell_angle_alpha   89.99332302
_cell_angle_beta   90.02790738
_cell_angle_gamma   89.99462084
_symmetry_Int_Tables_number   1
_chemical_formula_structural   Ti4MoC5
_chemical_formula_sum   'Ti16 Mo4 C20'
_cell_volume   407.56654531
_cell_formula_units_Z   4
loop_
 _symmetry_equiv_pos_site_id
 _symmetry_equiv_pos_as_xyz
  1  'x, y, z'
loop_
 _atom_site_type_symbol
 _atom_site_label
 _atom_site_symmetry_multiplicity
 _atom_site_fract_x
 _atom_site_fract_y
 _atom_site_fract_z
 _atom_site_occupancy
  Ti  Ti0  1  0.20047911  0.59623689  -0.00087216  1
  Ti  Ti1  1  0.29781988  0.90023832  0.24730883  1
  Ti  Ti2  1  0.20217992  0.59800225  0.50044139  1
  Ti  Ti3  1  0.40122777  0.20167843  0.00221445  1
  Ti  Ti4  1  0.49766775  0.50097066  0.24801446  1
  Ti  Ti5  1  0.59996767  0.80100394  0.00268721  1
  Ti  Ti6  1  0.70082720  0.09951452  0.25307166  1
  Ti  Ti7  1  0.90254608  0.70206037  0.24608303  1
  Ti  Ti8  1  0.40012465  0.19966442  0.49879727  1
  Ti  Ti9  1  0.49961639  0.49766916  0.75149281  1
  Ti  Ti10  1  0.59797806  0.80223828  0.49773265  1
  Ti  Ti11  1  0.69971060  0.10194995  0.74797691  1
  Ti  Ti12  1  0.79940057  0.39669790  0.00236284  1
  Ti  Ti13  1  -0.00113552  0.00438594  0.00010752  1
  Ti  Ti14  1  0.10067594  0.29874601  0.25247045  1
  Ti  Ti15  1  0.10018443  0.30094869  0.74836133  1
  Mo  Mo16  1  0.30540871  0.90082100  0.75742757  1
  Mo  Mo17  1  0.89322012  0.69637227  0.75719509  1
  Mo  Mo18  1  0.79608102  0.41134188  0.49459274  1
  Mo  Mo19  1  1.00680528  0.98867316  0.50825895  1
  C  C20  1  0.39920211  0.19979355  0.74943147  1
  C  C21  1  0.50082193  0.50012692  0.99959536  1
  C  C22  1  0.40029315  0.19909116  0.25025444  1
  C  C23  1  0.50099334  0.49993042  0.50024941  1
  C  C24  1  0.60046120  0.79962850  0.74923079  1
  C  C25  1  0.69934155  0.09960685  -0.00085893  1
  C  C26  1  0.79992527  0.39975739  0.75086844  1
  C  C27  1  0.90081673  0.70012586  0.99884958  1
  C  C28  1  0.09985523  0.30023546  0.99895703  1
  C  C29  1  0.60045425  0.79973316  0.25019355  1
  C  C30  1  0.69802946  0.09859070  0.49993226  1
  C  C31  1  0.80025038  0.40023659  0.24994522  1
  C  C32  1  0.90116097  0.70012599  0.49773905  1
  C  C33  1  0.99790400  0.00452469  0.74937880  1
  C  C34  1  0.10176970  0.30120992  0.49987712  1
  C  C35  1  0.20083997  0.59957986  0.74840960  1
  C  C36  1  0.29887068  0.89980687  -0.00092722  1
  C  C37  1  1.00006862  0.00063784  0.24825119  1
  C  C38  1  0.19978561  0.60025511  0.24955426  1
  C  C39  1  0.29979652  0.89922765  0.49808258  1
