# generated using pymatgen
data_Ti9VC10
_symmetry_space_group_name_H-M   'P 1'
_cell_length_a   6.82673251
_cell_length_b   6.82708030
_cell_length_c   8.63907097
_cell_angle_alpha   89.99894501
_cell_angle_beta   90.00001535
_cell_angle_gamma   89.98849362
_symmetry_Int_Tables_number   1
_chemical_formula_structural   Ti9VC10
_chemical_formula_sum   'Ti18 V2 C20'
_cell_volume   402.63815776
_cell_formula_units_Z   2
loop_
 _symmetry_equiv_pos_site_id
 _symmetry_equiv_pos_as_xyz
  1  'x, y, z'
loop_
 _atom_site_type_symbol
 _atom_site_label
 _atom_site_symmetry_multiplicity
 _atom_site_fract_x
 _atom_site_fract_y
 _atom_site_fract_z
 _atom_site_occupancy
  Ti  Ti0  1  0.20166273  0.59952368  0.99822255  1
  Ti  Ti1  1  0.30052344  0.90294614  0.25045054  1
  Ti  Ti2  1  0.20083280  0.59867866  0.50140039  1
  Ti  Ti3  1  0.40020521  0.20006093  0.99688290  1
  Ti  Ti4  1  0.50036060  0.49839066  0.24995882  1
  Ti  Ti5  1  0.59838546  0.80164983  0.99818144  1
  Ti  Ti6  1  0.70334672  0.09839423  0.25097440  1
  Ti  Ti7  1  0.90118741  0.69971964  0.24926923  1
  Ti  Ti8  1  0.40074001  0.20073947  0.50338447  1
  Ti  Ti9  1  0.59895306  0.80059311  0.50171361  1
  Ti  Ti10  1  0.69722123  0.10304457  0.74985983  1
  Ti  Ti11  1  0.79872444  0.40104947  0.99743805  1
  Ti  Ti12  1  0.89975343  0.69991406  0.75039320  1
  Ti  Ti13  1  0.00155427  -0.00096612  0.99770355  1
  Ti  Ti14  1  0.09884644  0.30271847  0.25036230  1
  Ti  Ti15  1  0.79976989  0.40150261  0.50261959  1
  Ti  Ti16  1  0.00070348  0.99853180  0.50231089  1
  Ti  Ti17  1  0.10354846  0.29653236  0.75009489  1
  V  V18  1  0.29974142  0.88918474  0.74854416  1
  V  V19  1  0.49847521  0.51133305  0.74976611  1
  C  C20  1  0.40040352  0.19987398  0.75015406  1
  C  C21  1  0.49963006  0.49985262  0.99361923  1
  C  C22  1  0.39974829  0.19983374  0.24999096  1
  C  C23  1  0.49971910  0.50000527  0.50616231  1
  C  C24  1  0.59331727  0.79733830  0.74983330  1
  C  C25  1  0.70052133  0.09914941  0.99978703  1
  C  C26  1  0.79518738  0.40265439  0.74991342  1
  C  C27  1  0.89974120  0.70002690  0.99960750  1
  C  C28  1  0.09942214  0.30053494  0.99961868  1
  C  C29  1  0.59877543  0.79862122  0.25018619  1
  C  C30  1  0.70058809  0.09915555  0.50059093  1
  C  C31  1  0.79851625  0.39940281  0.24998514  1
  C  C32  1  0.89937358  0.69973305  0.50020590  1
  C  C33  1  0.00517429  0.99671834  0.74994717  1
  C  C34  1  0.09922378  0.29988818  0.50035961  1
  C  C35  1  0.20647460  0.60255495  0.74970925  1
  C  C36  1  0.29993759  0.90017212  0.99398354  1
  C  C37  1  0.00068899  0.99955049  0.25008766  1
  C  C38  1  0.20062733  0.60070593  0.25015534  1
  C  C39  1  0.29970631  0.89971571  0.50615505  1
