# generated using pymatgen
data_HfTaTiNbWC5
_symmetry_space_group_name_H-M   'P 1'
_cell_length_a   7.08423008
_cell_length_b   4.46916520
_cell_length_c   7.06410061
_cell_angle_alpha   90.00188271
_cell_angle_beta   89.97487097
_cell_angle_gamma   89.99478461
_symmetry_Int_Tables_number   1
_chemical_formula_structural   HfTaTiNbWC5
_chemical_formula_sum   'Hf2 Ta2 Ti2 Nb2 W2 C10'
_cell_volume   223.65360266
_cell_formula_units_Z   2
loop_
 _symmetry_equiv_pos_site_id
 _symmetry_equiv_pos_as_xyz
  1  'x, y, z'
loop_
 _atom_site_type_symbol
 _atom_site_label
 _atom_site_symmetry_multiplicity
 _atom_site_fract_x
 _atom_site_fract_y
 _atom_site_fract_z
 _atom_site_occupancy
  Hf  Hf0  1  0.40176800  1.00019027  0.80360690  1
  Hf  Hf1  1  0.10357920  0.50021919  0.69324447  1
  Ta  Ta2  1  0.70005485  0.50033072  0.90682161  1
  Ta  Ta3  1  -0.00372636  0.00002237  0.01340212  1
  Ti  Ti4  1  0.29683421  0.49977356  0.10867424  1
  Ti  Ti5  1  0.59281188  1.00025718  0.20319121  1
  Nb  Nb6  1  0.50757570  0.49999392  0.49325316  1
  Nb  Nb7  1  0.80544115  0.99986906  0.58857232  1
  W  W8  1  0.21289015  0.99569212  0.38943825  1
  W  W9  1  0.88738561  0.48998785  0.29343001  1
  C  C10  1  0.70510802  0.00028116  0.90746683  1
  C  C11  1  0.49626944  1.00058355  0.49155642  1
  C  C12  1  0.60042545  0.50075446  0.19843280  1
  C  C13  1  0.89937628  0.00437566  0.30005006  1
  C  C14  1  0.00027549  0.50105414  0.01018211  1
  C  C15  1  0.29836329  1.00112518  0.10819370  1
  C  C16  1  0.40539978  0.50029674  0.80783733  1
  C  C17  1  0.79806532  0.50072154  0.59682980  1
  C  C18  1  0.09783811  1.00056982  0.69683220  1
  C  C19  1  0.19483457  0.50412397  0.38909573  1
