# generated using pymatgen
data_Ti9MoC10
_symmetry_space_group_name_H-M   'P 1'
_cell_length_a   6.86330200
_cell_length_b   6.86498183
_cell_length_c   8.67647686
_cell_angle_alpha   90.00094255
_cell_angle_beta   89.99782716
_cell_angle_gamma   89.99475577
_symmetry_Int_Tables_number   1
_chemical_formula_structural   Ti9MoC10
_chemical_formula_sum   'Ti18 Mo2 C20'
_cell_volume   408.80473012
_cell_formula_units_Z   2
loop_
 _symmetry_equiv_pos_site_id
 _symmetry_equiv_pos_as_xyz
  1  'x, y, z'
loop_
 _atom_site_type_symbol
 _atom_site_label
 _atom_site_symmetry_multiplicity
 _atom_site_fract_x
 _atom_site_fract_y
 _atom_site_fract_z
 _atom_site_occupancy
  Ti  Ti0  1  0.19889456  0.60174626  -0.00363329  1
  Ti  Ti1  1  0.30185948  0.89656073  0.25087072  1
  Ti  Ti2  1  0.19941132  0.60123130  0.50376207  1
  Ti  Ti3  1  0.40058608  0.20022756  0.00408303  1
  Ti  Ti4  1  0.49795233  0.50340435  0.25010112  1
  Ti  Ti5  1  0.60064934  0.79757007  -0.00369278  1
  Ti  Ti6  1  0.70033822  0.09570148  0.25006410  1
  Ti  Ti7  1  0.89957705  0.70136461  0.25050243  1
  Ti  Ti8  1  0.40013720  0.19906205  0.49572019  1
  Ti  Ti9  1  0.60045987  0.79906774  0.50393828  1
  Ti  Ti10  1  0.70407721  0.09789707  0.75026790  1
  Ti  Ti11  1  0.79991510  0.39878387  0.00326436  1
  Ti  Ti12  1  0.89958161  0.69977559  0.74969185  1
  Ti  Ti13  1  1.00067039  0.00120234  0.00299129  1
  Ti  Ti14  1  0.09968658  0.30456419  0.25006035  1
  Ti  Ti15  1  0.79907211  0.39944861  0.49667204  1
  Ti  Ti16  1  1.00010281  0.00196848  0.49740064  1
  Ti  Ti17  1  0.09666117  0.30279403  0.75004268  1
  Mo  Mo18  1  0.29406697  0.91162537  0.75086458  1
  Mo  Mo19  1  0.50572908  0.48774841  0.74955001  1
  C  C20  1  0.40008376  0.19985041  0.74989303  1
  C  C21  1  0.49927842  0.49950100  1.00022367  1
  C  C22  1  0.40015336  0.19972438  0.24974378  1
  C  C23  1  0.49939409  0.49941063  0.49956281  1
  C  C24  1  0.60156458  0.80057264  0.74999862  1
  C  C25  1  0.70008869  0.09918184  0.99967864  1
  C  C26  1  0.80029384  0.39921875  0.75001556  1
  C  C27  1  0.90008440  0.69981395  0.99926876  1
  C  C28  1  0.10053997  0.30050179  0.99960942  1
  C  C29  1  0.60076983  0.79908236  0.24987313  1
  C  C30  1  0.70005612  0.09965525  0.50032571  1
  C  C31  1  0.79885692  0.39966895  0.24996140  1
  C  C32  1  0.90011105  0.70006030  0.50055023  1
  C  C33  1  -0.00005319  0.00067389  0.75000579  1
  C  C34  1  0.10048785  0.30042440  0.50025045  1
  C  C35  1  0.19822478  0.59938919  0.74993560  1
  C  C36  1  0.30096817  0.90015463  1.00031742  1
  C  C37  1  1.00161790  0.00064827  0.24974447  1
  C  C38  1  0.19934759  0.60063300  0.24976606  1
  C  C39  1  0.30061849  0.89960354  0.49946033  1
