# generated using pymatgen
data_TaTiNbFeC4
_symmetry_space_group_name_H-M   'P 1'
_cell_length_a   6.19781448
_cell_length_b   6.18364511
_cell_length_c   8.71230905
_cell_angle_alpha   89.43044792
_cell_angle_beta   89.83237604
_cell_angle_gamma   90.17753806
_symmetry_Int_Tables_number   1
_chemical_formula_structural   TaTiNbFeC4
_chemical_formula_sum   'Ta4 Ti4 Nb4 Fe4 C16'
_cell_volume   333.88042731
_cell_formula_units_Z   4
loop_
 _symmetry_equiv_pos_site_id
 _symmetry_equiv_pos_as_xyz
  1  'x, y, z'
loop_
 _atom_site_type_symbol
 _atom_site_label
 _atom_site_symmetry_multiplicity
 _atom_site_fract_x
 _atom_site_fract_y
 _atom_site_fract_z
 _atom_site_occupancy
  Ta  Ta0  1  0.74866245  0.25341341  0.75814355  1
  Ta  Ta1  1  0.74580651  0.74185184  0.76551579  1
  Ta  Ta2  1  0.49774156  0.49641739  0.49420150  1
  Ta  Ta3  1  1.00449668  0.00991548  0.00234714  1
  Ti  Ti4  1  0.50380416  0.99803753  0.49432669  1
  Ti  Ti5  1  0.74859787  0.25579525  0.23988992  1
  Ti  Ti6  1  0.25223794  0.25374581  0.24193229  1
  Ti  Ti7  1  0.50317208  -0.00113412  0.00420875  1
  Nb  Nb8  1  0.24744611  0.74095198  0.75730804  1
  Nb  Nb9  1  0.00335493  0.00356862  0.49653520  1
  Nb  Nb10  1  0.99595199  0.50198602  0.49095215  1
  Nb  Nb11  1  0.25426743  0.74822150  0.24118667  1
  Fe  Fe12  1  0.25543847  0.25889378  0.77168287  1
  Fe  Fe13  1  0.74875669  0.74817324  0.23039894  1
  Fe  Fe14  1  0.48719828  0.48747983  0.00943660  1
  Fe  Fe15  1  0.00180783  0.50514112  0.01048156  1
  C  C16  1  0.74442971  0.75041249  0.49689710  1
  C  C17  1  0.74574810  0.24964156  0.49710754  1
  C  C18  1  0.25368337  0.75008270  0.49881476  1
  C  C19  1  0.25338130  0.24879192  0.49674819  1
  C  C20  1  0.50576565  0.49895597  0.23708199  1
  C  C21  1  0.50939834  -0.00111752  0.24727307  1
  C  C22  1  0.74854221  0.74241223  0.01170296  1
  C  C23  1  0.74799529  0.26165969  0.00220547  1
  C  C24  1  0.99242448  0.50101856  0.23390030  1
  C  C25  1  0.99498851  0.00098299  0.24687559  1
  C  C26  1  0.25210133  0.74096233  -0.00024069  1
  C  C27  1  0.25816960  0.26629269  0.99369303  1
  C  C28  1  0.49246411  0.48918680  0.75877206  1
  C  C29  1  0.49501751  1.00473243  0.75480051  1
  C  C30  1  0.00425992  0.49033389  0.76172032  1
  C  C31  1  1.00092366  1.00264523  0.75358154  1
