# generated using pymatgen
data_Ti7Mo3C10
_symmetry_space_group_name_H-M   'P 1'
_cell_length_a   6.85142750
_cell_length_b   6.86496939
_cell_length_c   8.68711820
_cell_angle_alpha   90.00481048
_cell_angle_beta   89.99859179
_cell_angle_gamma   89.91098415
_symmetry_Int_Tables_number   1
_chemical_formula_structural   Ti7Mo3C10
_chemical_formula_sum   'Ti14 Mo6 C20'
_cell_volume   408.59672076
_cell_formula_units_Z   2
loop_
 _symmetry_equiv_pos_site_id
 _symmetry_equiv_pos_as_xyz
  1  'x, y, z'
loop_
 _atom_site_type_symbol
 _atom_site_label
 _atom_site_symmetry_multiplicity
 _atom_site_fract_x
 _atom_site_fract_y
 _atom_site_fract_z
 _atom_site_occupancy
  Ti  Ti0  1  0.20036116  0.60079677  0.00175892  1
  Ti  Ti1  1  0.30135013  0.89656052  0.25056903  1
  Ti  Ti2  1  0.20056956  0.60142307  0.49872115  1
  Ti  Ti3  1  0.29855834  0.89722170  0.74973114  1
  Ti  Ti4  1  0.39332461  0.20224230  0.99722410  1
  Ti  Ti5  1  0.49750225  0.50055334  0.25141293  1
  Ti  Ti6  1  0.40401553  0.19677555  0.50474301  1
  Ti  Ti7  1  0.50119105  0.49644777  0.74757750  1
  Ti  Ti8  1  0.60130072  0.80152064  0.50489228  1
  Ti  Ti9  1  0.80453895  0.40451003  0.00329295  1
  Ti  Ti10  1  0.90247997  0.69631118  0.74725125  1
  Ti  Ti11  1  0.00451393  0.99952578  0.99651697  1
  Ti  Ti12  1  0.00018296  1.00172305  0.50535492  1
  Ti  Ti13  1  0.09739985  0.30298659  0.74872826  1
  Mo  Mo14  1  0.59953324  0.79006487  -0.00968795  1
  Mo  Mo15  1  0.68729776  0.09239491  0.23999058  1
  Mo  Mo16  1  0.89529950  0.72062875  0.25372311  1
  Mo  Mo17  1  0.70060413  0.10391561  0.76392711  1
  Mo  Mo18  1  0.10331279  0.29237152  0.25832585  1
  Mo  Mo19  1  0.79623915  0.39085682  0.48504009  1
  C  C20  1  0.39951009  0.19844238  0.75058457  1
  C  C21  1  0.50041635  0.49968325  0.00008532  1
  C  C22  1  0.39996416  0.20007697  0.25034035  1
  C  C23  1  0.50043225  0.49929892  0.49954021  1
  C  C24  1  0.60090289  0.79869114  0.74966473  1
  C  C25  1  0.70088670  0.10273760  1.00196497  1
  C  C26  1  0.80041984  0.40028951  0.74914975  1
  C  C27  1  0.90158345  0.70196696  0.99889782  1
  C  C28  1  0.09899266  0.30187829  0.99916950  1
  C  C29  1  0.59857115  0.79916882  0.25245816  1
  C  C30  1  0.70241653  0.10005896  0.50083504  1
  C  C31  1  0.79846169  0.40277957  0.24705254  1
  C  C32  1  0.90109551  0.70234824  0.49987486  1
  C  C33  1  0.00005023  1.00002582  0.75040610  1
  C  C34  1  0.10173291  0.30068284  0.50054704  1
  C  C35  1  0.20080065  0.59891987  0.74953318  1
  C  C36  1  0.30137192  0.90077623  1.00063217  1
  C  C37  1  0.00142028  0.00351946  0.25034817  1
  C  C38  1  0.19972263  0.60166845  0.25002590  1
  C  C39  1  0.30156476  0.90031119  0.50031674  1
