# generated using pymatgen
data_TiC
_symmetry_space_group_name_H-M   'P 1'
_cell_length_a   8.67601750
_cell_length_b   8.67597613
_cell_length_c   4.33564137
_cell_angle_alpha   90.00019676
_cell_angle_beta   89.99929935
_cell_angle_gamma   90.00186187
_symmetry_Int_Tables_number   1
_chemical_formula_structural   TiC
_chemical_formula_sum   'Ti16 C16'
_cell_volume   326.35638928
_cell_formula_units_Z   16
loop_
 _symmetry_equiv_pos_site_id
 _symmetry_equiv_pos_as_xyz
  1  'x, y, z'
loop_
 _atom_site_type_symbol
 _atom_site_label
 _atom_site_symmetry_multiplicity
 _atom_site_fract_x
 _atom_site_fract_y
 _atom_site_fract_z
 _atom_site_occupancy
  Ti  Ti0  1  0.50127254  0.49864701  0.00017430  1
  Ti  Ti1  1  0.99994171  0.25016785  0.49747029  1
  Ti  Ti2  1  0.24936889  0.99794612  0.49897168  1
  Ti  Ti3  1  0.24919736  0.24852716  -0.00088122  1
  Ti  Ti4  1  0.50009039  -0.00098025  1.00178649  1
  Ti  Ti5  1  0.99877796  0.74946552  0.49786474  1
  Ti  Ti6  1  0.25124446  0.49957937  0.49860737  1
  Ti  Ti7  1  0.25066068  0.74866393  0.99887889  1
  Ti  Ti8  1  0.00064073  0.50003722  0.99703008  1
  Ti  Ti9  1  0.49895965  0.24833762  0.49986972  1
  Ti  Ti10  1  0.75047583  0.00072731  0.50161924  1
  Ti  Ti11  1  0.74961318  0.24926270  0.99864758  1
  Ti  Ti12  1  0.00001282  0.99863279  0.00025468  1
  Ti  Ti13  1  0.50101835  0.74909255  0.50170013  1
  Ti  Ti14  1  0.75067086  0.49883476  0.49981486  1
  Ti  Ti15  1  0.74976004  0.74943773  0.00157612  1
  C  C16  1  0.25042176  0.25093294  0.50101856  1
  C  C17  1  0.24949163  0.50106121  0.00099592  1
  C  C18  1  0.50036239  0.25115048  1.00007568  1
  C  C19  1  0.49937953  0.50107840  0.49995568  1
  C  C20  1  0.24973802  0.75113051  0.50036456  1
  C  C21  1  0.24987221  1.00109984  -0.00028615  1
  C  C22  1  0.49984972  0.75110764  0.99946867  1
  C  C23  1  0.49997769  1.00100996  0.49946683  1
  C  C24  1  0.75044832  0.25054662  0.50043855  1
  C  C25  1  0.74925415  0.50062892  0.00062818  1
  C  C26  1  0.00030906  0.25070851  1.00180522  1
  C  C27  1  -0.00047561  0.50060513  0.50197903  1
  C  C28  1  0.74984214  0.75052306  0.49913989  1
  C  C29  1  0.74989179  0.00053874  0.99897194  1
  C  C30  1  0.99984891  0.75062213  1.00115151  1
  C  C31  1  0.99993370  1.00086221  0.50091233  1
