# generated using pymatgen
data_ZrTaTiNbN4
_symmetry_space_group_name_H-M   'P 1'
_cell_length_a   6.27815395
_cell_length_b   6.27619080
_cell_length_c   8.85454223
_cell_angle_alpha   90.04327847
_cell_angle_beta   90.07722428
_cell_angle_gamma   90.58688291
_symmetry_Int_Tables_number   1
_chemical_formula_structural   ZrTaTiNbN4
_chemical_formula_sum   'Zr4 Ta4 Ti4 Nb4 N16'
_cell_volume   348.87584885
_cell_formula_units_Z   4
loop_
 _symmetry_equiv_pos_site_id
 _symmetry_equiv_pos_as_xyz
  1  'x, y, z'
loop_
 _atom_site_type_symbol
 _atom_site_label
 _atom_site_symmetry_multiplicity
 _atom_site_fract_x
 _atom_site_fract_y
 _atom_site_fract_z
 _atom_site_occupancy
  Zr  Zr0  1  0.25287500  0.24239560  0.74915496  1
  Zr  Zr1  1  0.75092951  0.75396375  0.25651026  1
  Zr  Zr2  1  0.50026691  0.49942368  0.00137558  1
  Zr  Zr3  1  0.00354919  0.50239775  0.00206149  1
  Ta  Ta4  1  0.75107817  0.24067526  0.73694747  1
  Ta  Ta5  1  0.75250012  0.75281664  0.74081887  1
  Ta  Ta6  1  0.48871946  0.49911477  0.49320900  1
  Ta  Ta7  1  -0.00260729  0.00304560  0.00830561  1
  Ti  Ti8  1  0.49736578  1.00273677  0.49310996  1
  Ti  Ti9  1  0.74606541  0.24935843  0.25404735  1
  Ti  Ti10  1  0.24918443  0.24735082  0.25341533  1
  Ti  Ti11  1  0.49509539  1.00023309  0.01032250  1
  Nb  Nb12  1  0.25035748  0.75243287  0.74389334  1
  Nb  Nb13  1  1.00673509  -0.00072181  0.49876474  1
  Nb  Nb14  1  0.00465634  0.49766951  0.49681436  1
  Nb  Nb15  1  0.24606137  0.75606843  0.25740742  1
  N  N16  1  0.73990154  0.75074773  0.50565919  1
  N  N17  1  0.73965278  0.24898803  0.49733781  1
  N  N18  1  0.26253001  0.75254518  0.50112690  1
  N  N19  1  0.26169378  0.24802375  0.49557737  1
  N  N20  1  0.49844997  0.49231479  0.25432708  1
  N  N21  1  0.50060797  0.00991274  0.25234848  1
  N  N22  1  0.74734550  0.76121368  0.99674732  1
  N  N23  1  0.74927883  0.24012749  0.99861787  1
  N  N24  1  -0.00004578  0.48756391  0.25090286  1
  N  N25  1  -0.00255888  0.01599177  0.24759842  1
  N  N26  1  0.25267824  0.76291444  1.00109517  1
  N  N27  1  0.25010664  0.23989729  0.00702213  1
  N  N28  1  0.51183048  0.49767880  0.74406629  1
  N  N29  1  0.51304311  -0.00115429  0.74663300  1
  N  N30  1  0.99142684  0.49631571  0.74892749  1
  N  N31  1  -0.00928124  0.99886978  0.75556938  1
