# generated using pymatgen
data_TaTiNbZnN4
_symmetry_space_group_name_H-M   'P 1'
_cell_length_a   6.14993179
_cell_length_b   6.21162490
_cell_length_c   8.76299210
_cell_angle_alpha   90.61902219
_cell_angle_beta   90.00005165
_cell_angle_gamma   89.97143806
_symmetry_Int_Tables_number   1
_chemical_formula_structural   TaTiNbZnN4
_chemical_formula_sum   'Ta4 Ti4 Nb4 Zn4 N16'
_cell_volume   334.73609110
_cell_formula_units_Z   4
loop_
 _symmetry_equiv_pos_site_id
 _symmetry_equiv_pos_as_xyz
  1  'x, y, z'
loop_
 _atom_site_type_symbol
 _atom_site_label
 _atom_site_symmetry_multiplicity
 _atom_site_fract_x
 _atom_site_fract_y
 _atom_site_fract_z
 _atom_site_occupancy
  Ta  Ta0  1  0.76231465  0.25978602  0.74763601  1
  Ta  Ta1  1  0.73448438  0.75795600  0.74292755  1
  Ta  Ta2  1  0.49262052  0.49192320  0.48572693  1
  Ta  Ta3  1  0.99061417  0.99387786  1.00543139  1
  Ti  Ti4  1  0.49703707  0.00277153  0.49394112  1
  Ti  Ti5  1  0.74814133  0.24061394  0.25147482  1
  Ti  Ti6  1  0.24827453  0.24216227  0.24805976  1
  Ti  Ti7  1  0.49307354  -0.00052520  0.00513086  1
  Nb  Nb8  1  0.23971444  0.76077646  0.74953416  1
  Nb  Nb9  1  1.00542401  0.99911411  0.49854051  1
  Nb  Nb10  1  0.00426873  0.50065364  0.49129443  1
  Nb  Nb11  1  0.24564082  0.75202516  0.24992107  1
  Zn  Zn12  1  0.27350880  0.26755062  0.77048004  1
  Zn  Zn13  1  0.74770339  0.74608247  0.25526932  1
  Zn  Zn14  1  0.51961516  0.50364556  0.01349380  1
  Zn  Zn15  1  0.01274145  0.48880453  0.01028089  1
  N  N16  1  0.73881372  0.74955833  0.49808355  1
  N  N17  1  0.74246028  0.24786327  0.49989704  1
  N  N18  1  0.26098661  0.75185077  0.49935598  1
  N  N19  1  0.25736819  0.24872834  0.49893281  1
  N  N20  1  0.49695049  0.48682000  0.25073536  1
  N  N21  1  0.49880231  0.00171477  0.24966620  1
  N  N22  1  0.74904988  0.75684203  0.99021598  1
  N  N23  1  0.74934820  0.23904779  0.99841249  1
  N  N24  1  -0.00259482  0.48797334  0.24775028  1
  N  N25  1  0.99437723  0.00320750  0.24593784  1
  N  N26  1  0.25077389  0.75499708  0.99843318  1
  N  N27  1  0.25153394  0.23595619  0.00728733  1
  N  N28  1  0.50668768  0.50634841  0.74077497  1
  N  N29  1  0.50574216  1.00857206  0.74956040  1
  N  N30  1  0.99175409  0.50362565  0.75060683  1
  N  N31  1  -0.00649499  0.01143425  0.75407518  1
