# generated using pymatgen
data_Ti7W3C10
_symmetry_space_group_name_H-M   'P 1'
_cell_length_a   6.86524571
_cell_length_b   6.87262254
_cell_length_c   8.68674541
_cell_angle_alpha   89.98306280
_cell_angle_beta   89.99677899
_cell_angle_gamma   89.92587273
_symmetry_Int_Tables_number   1
_chemical_formula_structural   Ti7W3C10
_chemical_formula_sum   'Ti14 W6 C20'
_cell_volume   409.85976594
_cell_formula_units_Z   2
loop_
 _symmetry_equiv_pos_site_id
 _symmetry_equiv_pos_as_xyz
  1  'x, y, z'
loop_
 _atom_site_type_symbol
 _atom_site_label
 _atom_site_symmetry_multiplicity
 _atom_site_fract_x
 _atom_site_fract_y
 _atom_site_fract_z
 _atom_site_occupancy
  Ti  Ti0  1  0.19953868  0.59813677  0.99867596  1
  Ti  Ti1  1  0.30256688  0.89502087  0.25271984  1
  Ti  Ti2  1  0.20117471  0.59910349  0.50042665  1
  Ti  Ti3  1  0.29652969  0.89663901  0.74588797  1
  Ti  Ti4  1  0.39491388  0.20188593  0.99528394  1
  Ti  Ti5  1  0.49848360  0.50128777  0.25006337  1
  Ti  Ti6  1  0.40342115  0.19537835  0.50488114  1
  Ti  Ti7  1  0.49765950  0.49654117  0.74868041  1
  Ti  Ti8  1  0.60157937  0.80276137  0.50498031  1
  Ti  Ti9  1  0.80394138  0.40462290  1.00261439  1
  Ti  Ti10  1  0.90240787  0.69661724  0.75053606  1
  Ti  Ti11  1  0.00664580  0.99872062  0.99685593  1
  Ti  Ti12  1  0.00145756  1.00273456  0.50342215  1
  Ti  Ti13  1  0.09980436  0.30364375  0.74753450  1
  W  W14  1  0.58896378  0.79249404  0.99088845  1
  W  W15  1  0.68908432  0.09792318  0.24480261  1
  W  W16  1  0.90081779  0.71536363  0.24964487  1
  W  W17  1  0.70597313  0.10582215  0.76156300  1
  W  W18  1  0.10477860  0.29494660  0.25409051  1
  W  W19  1  0.79124632  0.40618671  0.49118239  1
  C  C20  1  0.40105731  0.19733930  0.74999638  1
  C  C21  1  0.50058937  0.49910457  0.00050958  1
  C  C22  1  0.40077897  0.19913818  0.24999806  1
  C  C23  1  0.50044027  0.49797077  0.50015265  1
  C  C24  1  0.60105186  0.79955873  0.74989355  1
  C  C25  1  0.70130946  0.09930227  0.00280234  1
  C  C26  1  0.80008858  0.40000899  0.75098218  1
  C  C27  1  0.90009545  0.70167500  1.00119339  1
  C  C28  1  0.09892676  0.30046484  0.00075734  1
  C  C29  1  0.60183530  0.79861060  0.25061166  1
  C  C30  1  0.70208444  0.10017074  0.50011945  1
  C  C31  1  0.80083831  0.40043500  0.24916065  1
  C  C32  1  0.90023548  0.69980586  0.50007560  1
  C  C33  1  0.99915737  1.00067301  0.75002279  1
  C  C34  1  0.09884520  0.30026650  0.49994448  1
  C  C35  1  0.20012182  0.59893615  0.74966861  1
  C  C36  1  0.30200831  0.90028225  1.00027427  1
  C  C37  1  1.00020084  1.00278705  0.25001444  1
  C  C38  1  0.19904936  0.59956338  0.24989096  1
  C  C39  1  0.30085869  0.89926185  0.49912481  1
