# generated using pymatgen
data_YTaTiNbN4
_symmetry_space_group_name_H-M   'P 1'
_cell_length_a   6.31901583
_cell_length_b   6.34913084
_cell_length_c   9.08155479
_cell_angle_alpha   90.21810677
_cell_angle_beta   90.41207005
_cell_angle_gamma   89.76481443
_symmetry_Int_Tables_number   1
_chemical_formula_structural   YTaTiNbN4
_chemical_formula_sum   'Y4 Ta4 Ti4 Nb4 N16'
_cell_volume   364.33923259
_cell_formula_units_Z   4
loop_
 _symmetry_equiv_pos_site_id
 _symmetry_equiv_pos_as_xyz
  1  'x, y, z'
loop_
 _atom_site_type_symbol
 _atom_site_label
 _atom_site_symmetry_multiplicity
 _atom_site_fract_x
 _atom_site_fract_y
 _atom_site_fract_z
 _atom_site_occupancy
  Y  Y0  1  0.25578502  0.24364084  0.74596143  1
  Y  Y1  1  0.74557445  0.75801722  0.25645146  1
  Y  Y2  1  0.49722369  0.50137627  1.00327972  1
  Y  Y3  1  -0.00221834  0.50022626  0.00347466  1
  Ta  Ta4  1  0.75422234  0.24203654  0.72768581  1
  Ta  Ta5  1  0.74963558  0.75753163  0.73437823  1
  Ta  Ta6  1  0.49205535  0.49545964  0.49283840  1
  Ta  Ta7  1  0.00097340  1.00288381  0.00980991  1
  Ti  Ti8  1  0.49678364  0.00203930  0.49427589  1
  Ti  Ti9  1  0.74906653  0.24442797  0.26362963  1
  Ti  Ti10  1  0.24915158  0.24242748  0.25949554  1
  Ti  Ti11  1  0.49509477  0.00367100  0.00989695  1
  Nb  Nb12  1  0.24637382  0.75027003  0.73490931  1
  Nb  Nb13  1  1.00883215  -0.00586449  0.50004473  1
  Nb  Nb14  1  0.01048183  0.50131773  0.49482512  1
  Nb  Nb15  1  0.24551791  0.76080813  0.26426112  1
  N  N16  1  0.74143762  0.74973295  0.50560458  1
  N  N17  1  0.74739025  0.24585710  0.49851363  1
  N  N18  1  0.26671388  0.75122730  0.49994156  1
  N  N19  1  0.25926042  0.24565799  0.49117632  1
  N  N20  1  0.49221384  0.48596916  0.26310646  1
  N  N21  1  0.49145644  0.01573888  0.25328769  1
  N  N22  1  0.74746254  0.77476550  0.98845540  1
  N  N23  1  0.74886982  0.22676700  0.99929211  1
  N  N24  1  0.00526037  0.48549736  0.26036526  1
  N  N25  1  0.00242877  0.01622826  0.25015665  1
  N  N26  1  0.24636115  0.77602218  0.99863147  1
  N  N27  1  0.24717465  0.22929676  0.01306691  1
  N  N28  1  0.51863100  0.50507686  0.73728253  1
  N  N29  1  0.51596666  0.99347129  0.74704956  1
  N  N30  1  0.98442182  0.50204509  0.74163969  1
  N  N31  1  0.98887057  -0.00465509  0.75544654  1
