# generated using pymatgen
data_Ti4WC5
_symmetry_space_group_name_H-M   'P 1'
_cell_length_a   6.85441193
_cell_length_b   6.85511694
_cell_length_c   8.69480873
_cell_angle_alpha   89.99922396
_cell_angle_beta   90.00571787
_cell_angle_gamma   89.98958204
_symmetry_Int_Tables_number   1
_chemical_formula_structural   Ti4WC5
_chemical_formula_sum   'Ti16 W4 C20'
_cell_volume   408.54988455
_cell_formula_units_Z   4
loop_
 _symmetry_equiv_pos_site_id
 _symmetry_equiv_pos_as_xyz
  1  'x, y, z'
loop_
 _atom_site_type_symbol
 _atom_site_label
 _atom_site_symmetry_multiplicity
 _atom_site_fract_x
 _atom_site_fract_y
 _atom_site_fract_z
 _atom_site_occupancy
  Ti  Ti0  1  0.20185226  0.59498629  -0.00079329  1
  Ti  Ti1  1  0.30163105  0.89799736  0.24784670  1
  Ti  Ti2  1  0.19920458  0.60235629  0.50236972  1
  Ti  Ti3  1  0.40173638  0.20308643  0.00199939  1
  Ti  Ti4  1  0.49572452  0.50121824  0.24871615  1
  Ti  Ti5  1  0.60029270  0.79941848  0.00357097  1
  Ti  Ti6  1  0.69565267  0.09818020  0.24825180  1
  Ti  Ti7  1  0.90224085  0.70006918  0.24718512  1
  Ti  Ti8  1  0.39903387  0.19756632  0.49888436  1
  Ti  Ti9  1  0.50038335  0.49640787  0.75061313  1
  Ti  Ti10  1  0.60194744  0.79958635  0.49753804  1
  Ti  Ti11  1  0.70299683  0.10098595  0.74956878  1
  Ti  Ti12  1  0.79886891  0.39638843  0.00247700  1
  Ti  Ti13  1  -0.00105118  0.00532480  0.00141414  1
  Ti  Ti14  1  0.10401112  0.30252884  0.24851520  1
  Ti  Ti15  1  0.09807872  0.29968471  0.74873035  1
  W  W16  1  0.30360337  0.90524343  0.75808255  1
  W  W17  1  0.89706594  0.69853799  0.75876331  1
  W  W18  1  0.79166653  0.40106572  0.49192869  1
  W  W19  1  1.00527345  1.00510413  0.49118125  1
  C  C20  1  0.40002769  0.19862062  0.74996052  1
  C  C21  1  0.50166702  0.50037546  -0.00033168  1
  C  C22  1  0.39980888  0.19932268  0.25113404  1
  C  C23  1  0.50053243  0.50006788  0.50102968  1
  C  C24  1  0.60016940  0.79921026  0.74958287  1
  C  C25  1  0.69971430  0.09901546  0.99970891  1
  C  C26  1  0.80086818  0.40022631  0.74951703  1
  C  C27  1  0.90126205  0.69996554  0.99915743  1
  C  C28  1  0.09986112  0.29960168  0.99948080  1
  C  C29  1  0.60083111  0.79870182  0.25102873  1
  C  C30  1  0.70032914  0.09872535  0.50088389  1
  C  C31  1  0.79991118  0.39968333  0.25067784  1
  C  C32  1  0.90086296  0.69937990  0.50055085  1
  C  C33  1  -0.00064091  -0.00003040  0.74959974  1
  C  C34  1  0.09980817  0.30032524  0.50087718  1
  C  C35  1  0.19944556  0.60013800  0.74912463  1
  C  C36  1  0.29905741  0.89993488  0.99943585  1
  C  C37  1  0.99998068  0.00040800  0.25089774  1
  C  C38  1  0.19914677  0.60076257  0.25020667  1
  C  C39  1  0.29851943  0.89965938  0.50054335  1
