# generated using pymatgen
data_TaTiNbWN4
_symmetry_space_group_name_H-M   'P 1'
_cell_length_a   6.13016850
_cell_length_b   6.15045028
_cell_length_c   8.94270369
_cell_angle_alpha   89.40987371
_cell_angle_beta   89.63566906
_cell_angle_gamma   89.75537752
_symmetry_Int_Tables_number   1
_chemical_formula_structural   TaTiNbWN4
_chemical_formula_sum   'Ta4 Ti4 Nb4 W4 N16'
_cell_volume   337.14172960
_cell_formula_units_Z   4
loop_
 _symmetry_equiv_pos_site_id
 _symmetry_equiv_pos_as_xyz
  1  'x, y, z'
loop_
 _atom_site_type_symbol
 _atom_site_label
 _atom_site_symmetry_multiplicity
 _atom_site_fract_x
 _atom_site_fract_y
 _atom_site_fract_z
 _atom_site_occupancy
  Ta  Ta0  1  0.74490387  0.25809825  0.76033557  1
  Ta  Ta1  1  0.74051495  0.72827469  0.77222956  1
  Ta  Ta2  1  0.50023171  0.49537140  0.48019509  1
  Ta  Ta3  1  0.02987792  0.01272557  0.98833937  1
  Ti  Ti4  1  0.49555054  -0.00031659  0.49250078  1
  Ti  Ti5  1  0.74619582  0.25153001  0.25244384  1
  Ti  Ti6  1  0.25340701  0.24383983  0.25448986  1
  Ti  Ti7  1  0.49060702  0.00338984  0.00733608  1
  Nb  Nb8  1  0.24393421  0.75798730  0.76269417  1
  Nb  Nb9  1  1.00518271  0.99815928  0.48983995  1
  Nb  Nb10  1  -0.01110477  0.51039596  0.47796361  1
  Nb  Nb11  1  0.24474084  0.75812213  0.25736485  1
  W  W12  1  0.24846156  0.22271692  0.76399715  1
  W  W13  1  0.76959402  0.74333800  0.26721606  1
  W  W14  1  0.53153053  0.50533342  0.99390941  1
  W  W15  1  0.96835312  0.50743765  0.98634053  1
  N  N16  1  0.73513265  0.75498596  0.51984829  1
  N  N17  1  0.74088474  0.24818212  0.50129206  1
  N  N18  1  0.25994300  0.74725200  0.50779496  1
  N  N19  1  0.25348134  0.25321479  0.50100413  1
  N  N20  1  0.50139872  0.49882888  0.24316690  1
  N  N21  1  0.50843668  0.00184225  0.24972268  1
  N  N22  1  0.75600538  0.78042937  0.01641643  1
  N  N23  1  0.75020587  0.23255077  0.00492835  1
  N  N24  1  1.00390271  0.48610755  0.22995188  1
  N  N25  1  -0.00340293  0.01286903  0.23759875  1
  N  N26  1  0.25266292  0.74459281  0.00840429  1
  N  N27  1  0.25921216  0.27012591  0.00938820  1
  N  N28  1  0.48874822  0.49127846  0.73494259  1
  N  N29  1  0.51142967  -0.00241040  0.75087367  1
  N  N30  1  0.00347548  0.48993852  0.73361532  1
  N  N31  1  0.97706775  0.99528436  0.74507491  1
