# generated using pymatgen
data_TaTiMnNbN4
_symmetry_space_group_name_H-M   'P 1'
_cell_length_a   6.16255627
_cell_length_b   6.27511522
_cell_length_c   8.48917756
_cell_angle_alpha   89.62002859
_cell_angle_beta   89.89983942
_cell_angle_gamma   90.89102098
_symmetry_Int_Tables_number   1
_chemical_formula_structural   TaTiMnNbN4
_chemical_formula_sum   'Ta4 Ti4 Mn4 Nb4 N16'
_cell_volume   328.23539269
_cell_formula_units_Z   4
loop_
 _symmetry_equiv_pos_site_id
 _symmetry_equiv_pos_as_xyz
  1  'x, y, z'
loop_
 _atom_site_type_symbol
 _atom_site_label
 _atom_site_symmetry_multiplicity
 _atom_site_fract_x
 _atom_site_fract_y
 _atom_site_fract_z
 _atom_site_occupancy
  Ta  Ta0  1  0.74956631  0.26002330  0.75185692  1
  Ta  Ta1  1  0.74289442  0.75660792  0.75393384  1
  Ta  Ta2  1  0.50020785  0.48826497  0.49028034  1
  Ta  Ta3  1  0.00637171  0.00274890  0.00525116  1
  Ti  Ti4  1  0.49897741  0.00315125  0.49670335  1
  Ti  Ti5  1  0.74984117  0.25028078  0.24895352  1
  Ti  Ti6  1  0.25481779  0.24842815  0.24683829  1
  Ti  Ti7  1  0.49876298  -0.00055067  0.00237698  1
  Mn  Mn8  1  0.26102753  0.25122428  0.75331298  1
  Mn  Mn9  1  0.74372467  0.75147253  0.24620675  1
  Mn  Mn10  1  0.49572338  0.49572030  0.00461575  1
  Mn  Mn11  1  -0.00251704  0.49812929  0.00434123  1
  Nb  Nb12  1  0.23470941  0.75371421  0.75022312  1
  Nb  Nb13  1  0.00750311  0.98462374  0.49507912  1
  Nb  Nb14  1  0.00426400  0.50460302  0.49680095  1
  Nb  Nb15  1  0.24557482  0.74805253  0.24864612  1
  N  N16  1  0.73725172  0.74569643  0.49223058  1
  N  N17  1  0.75064636  0.24478388  0.50028209  1
  N  N18  1  0.27092378  0.74345708  0.50045338  1
  N  N19  1  0.25698614  0.24690735  0.50809204  1
  N  N20  1  0.50211361  0.49437069  0.24257173  1
  N  N21  1  0.49845371  0.00820543  0.24971208  1
  N  N22  1  0.74761796  0.75209282  0.00498559  1
  N  N23  1  0.75353736  0.24265639  -0.00140395  1
  N  N24  1  -0.00307551  0.49217718  0.24123078  1
  N  N25  1  -0.00314841  0.00846467  0.24797368  1
  N  N26  1  0.24783964  0.75353993  -0.00203951  1
  N  N27  1  0.25269442  0.24873507  0.99516378  1
  N  N28  1  0.49888893  0.49963137  0.75749885  1
  N  N29  1  0.51241264  0.99985314  0.75044017  1
  N  N30  1  0.98896823  0.50181838  0.76373871  1
  N  N31  1  0.99640652  0.01822735  0.75308899  1
