# generated using pymatgen
data_ScTaTiNbN4
_symmetry_space_group_name_H-M   'P 1'
_cell_length_a   6.22116648
_cell_length_b   6.22886016
_cell_length_c   8.82387051
_cell_angle_alpha   90.11345315
_cell_angle_beta   89.96479038
_cell_angle_gamma   90.03082084
_symmetry_Int_Tables_number   1
_chemical_formula_structural   ScTaTiNbN4
_chemical_formula_sum   'Sc4 Ta4 Ti4 Nb4 N16'
_cell_volume   341.93104623
_cell_formula_units_Z   4
loop_
 _symmetry_equiv_pos_site_id
 _symmetry_equiv_pos_as_xyz
  1  'x, y, z'
loop_
 _atom_site_type_symbol
 _atom_site_label
 _atom_site_symmetry_multiplicity
 _atom_site_fract_x
 _atom_site_fract_y
 _atom_site_fract_z
 _atom_site_occupancy
  Sc  Sc0  1  0.25723919  0.24541842  0.75022174  1
  Sc  Sc1  1  0.74518463  0.75250175  0.25215830  1
  Sc  Sc2  1  0.49890279  0.49847128  0.00300659  1
  Sc  Sc3  1  -0.00000141  0.49804036  0.00304585  1
  Ta  Ta4  1  0.75529184  0.24609995  0.74189380  1
  Ta  Ta5  1  0.74329077  0.75928696  0.74429262  1
  Ta  Ta6  1  0.49709807  0.49240408  0.49340456  1
  Ta  Ta7  1  0.00217059  1.00013789  0.00661393  1
  Ti  Ti8  1  0.49862022  0.00227830  0.49382297  1
  Ti  Ti9  1  0.74895468  0.24792120  0.25373418  1
  Ti  Ti10  1  0.24978183  0.24797953  0.25383437  1
  Ti  Ti11  1  0.49762327  0.00100436  0.00614451  1
  Nb  Nb12  1  0.24239689  0.74931378  0.74430936  1
  Nb  Nb13  1  1.00641605  -0.00543266  0.49706322  1
  Nb  Nb14  1  1.00806157  0.50625135  0.49568193  1
  Nb  Nb15  1  0.24556904  0.75815181  0.25385377  1
  N  N16  1  0.73927484  0.74946453  0.50077668  1
  N  N17  1  0.74619184  0.24826111  0.49918089  1
  N  N18  1  0.26776705  0.75157406  0.49928245  1
  N  N19  1  0.25979293  0.24823554  0.49909545  1
  N  N20  1  0.49954991  0.49266650  0.25291265  1
  N  N21  1  0.50123456  0.00880737  0.25088798  1
  N  N22  1  0.74800811  0.75655119  0.99740559  1
  N  N23  1  0.74854068  0.24325876  0.99980962  1
  N  N24  1  -0.00323930  0.49262381  0.24890029  1
  N  N25  1  0.99446608  0.00960013  0.24640478  1
  N  N26  1  0.25077917  0.75619056  0.99893070  1
  N  N27  1  0.25072857  0.24326168  0.00510083  1
  N  N28  1  0.50895650  0.49837307  0.74834879  1
  N  N29  1  0.50551654  1.00173515  0.75068227  1
  N  N30  1  0.99147999  0.49391223  0.75234688  1
  N  N31  1  0.99598851  0.00496943  0.75490880  1
