# generated using pymatgen
data_TaTiNbRuN4
_symmetry_space_group_name_H-M   'P 1'
_cell_length_a   6.51566681
_cell_length_b   6.49076072
_cell_length_c   8.53212913
_cell_angle_alpha   90.45912086
_cell_angle_beta   88.33132686
_cell_angle_gamma   99.00640754
_symmetry_Int_Tables_number   1
_chemical_formula_structural   TaTiNbRuN4
_chemical_formula_sum   'Ta4 Ti4 Nb4 Ru4 N16'
_cell_volume   356.23554423
_cell_formula_units_Z   4
loop_
 _symmetry_equiv_pos_site_id
 _symmetry_equiv_pos_as_xyz
  1  'x, y, z'
loop_
 _atom_site_type_symbol
 _atom_site_label
 _atom_site_symmetry_multiplicity
 _atom_site_fract_x
 _atom_site_fract_y
 _atom_site_fract_z
 _atom_site_occupancy
  Ta  Ta0  1  0.76435626  0.23155943  0.76128530  1
  Ta  Ta1  1  0.71004178  0.71982910  0.76895236  1
  Ta  Ta2  1  0.54690548  0.46619534  0.47052131  1
  Ta  Ta3  1  -0.01702878  -0.03590447  1.00124896  1
  Ti  Ti4  1  0.45392223  0.03105740  0.49431969  1
  Ti  Ti5  1  0.78166626  0.19475088  0.24912767  1
  Ti  Ti6  1  0.26996634  0.26202362  0.23270296  1
  Ti  Ti7  1  0.48305480  1.01270919  0.00147179  1
  Nb  Nb8  1  0.22052241  0.76977267  0.74491458  1
  Nb  Nb9  1  0.98556515  1.00236665  0.50424343  1
  Nb  Nb10  1  1.02349991  0.48213821  0.49562854  1
  Nb  Nb11  1  0.21522475  0.74636052  0.24022002  1
  Ru  Ru12  1  0.37732016  0.37268361  0.84326520  1
  Ru  Ru13  1  0.73621545  0.77111043  0.25927144  1
  Ru  Ru14  1  0.64892540  0.47760956  0.04661671  1
  Ru  Ru15  1  0.03548748  0.47869991  0.99038940  1
  N  N16  1  0.78433573  0.71140287  0.50007496  1
  N  N17  1  0.74744452  0.24182516  0.49830698  1
  N  N18  1  0.21217371  0.78353337  0.49166872  1
  N  N19  1  0.25688153  0.24496125  0.48368731  1
  N  N20  1  0.46191110  0.55268000  0.25523404  1
  N  N21  1  0.46667847  0.03032285  0.24730599  1
  N  N22  1  0.68013091  0.78452338  0.01004639  1
  N  N23  1  0.78192396  0.20918169  0.00347191  1
  N  N24  1  0.03375820  0.44520863  0.24484405  1
  N  N25  1  0.00442758  -0.00394331  0.24930601  1
  N  N26  1  0.21826922  0.77414231  0.99466209  1
  N  N27  1  0.23936171  0.19512278  1.00129660  1
  N  N28  1  0.44038078  0.57199891  0.67442224  1
  N  N29  1  0.51983442  0.97777992  0.74138647  1
  N  N30  1  0.95517064  0.51842621  0.74806685  1
  N  N31  1  0.96238705  0.97994251  0.75191383  1
