# generated using pymatgen
data_TaTiNbVN4
_symmetry_space_group_name_H-M   'P 1'
_cell_length_a   6.09305320
_cell_length_b   6.09236985
_cell_length_c   8.75815798
_cell_angle_alpha   89.99123108
_cell_angle_beta   89.98242691
_cell_angle_gamma   90.47268107
_symmetry_Int_Tables_number   1
_chemical_formula_structural   TaTiNbVN4
_chemical_formula_sum   'Ta4 Ti4 Nb4 V4 N16'
_cell_volume   325.10167002
_cell_formula_units_Z   4
loop_
 _symmetry_equiv_pos_site_id
 _symmetry_equiv_pos_as_xyz
  1  'x, y, z'
loop_
 _atom_site_type_symbol
 _atom_site_label
 _atom_site_symmetry_multiplicity
 _atom_site_fract_x
 _atom_site_fract_y
 _atom_site_fract_z
 _atom_site_occupancy
  Ta  Ta0  1  0.74235251  0.23909247  0.76004898  1
  Ta  Ta1  1  0.74537274  0.74402802  0.75934567  1
  Ta  Ta2  1  0.50226676  0.50401730  0.48849745  1
  Ta  Ta3  1  1.00053153  0.00738128  0.01181596  1
  Ti  Ti4  1  0.50747500  1.00151014  0.49638780  1
  Ti  Ti5  1  0.75214582  0.24647099  0.24583755  1
  Ti  Ti6  1  0.24890715  0.24765366  0.24818755  1
  Ti  Ti7  1  0.50073228  0.00013912  0.00700570  1
  Nb  Nb8  1  0.24447450  0.73588308  0.74384441  1
  Nb  Nb9  1  0.99647381  -0.00164483  0.50817558  1
  Nb  Nb10  1  0.00966986  0.50208771  0.49417808  1
  Nb  Nb11  1  0.25137006  0.74289104  0.23963493  1
  V  V12  1  0.24425450  0.27733628  0.75477896  1
  V  V13  1  0.74598841  0.73986850  0.22956435  1
  V  V14  1  0.48286210  0.50792424  0.00871047  1
  V  V15  1  0.01974056  0.50478357  0.00917619  1
  N  N16  1  0.74277293  0.74897788  0.49475497  1
  N  N17  1  0.74434108  0.25481833  0.49973222  1
  N  N18  1  0.26277872  0.75768186  0.49301794  1
  N  N19  1  0.26360657  0.24675603  0.50167589  1
  N  N20  1  0.50877470  0.49132047  0.24612433  1
  N  N21  1  0.50662150  0.00053825  0.25059583  1
  N  N22  1  0.74984063  0.74389250  0.99934046  1
  N  N23  1  0.74772354  0.25736989  0.00051688  1
  N  N24  1  0.99346680  0.49267647  0.24126746  1
  N  N25  1  0.99161613  0.99756486  0.25182023  1
  N  N26  1  0.25082176  0.75622026  0.99188940  1
  N  N27  1  0.25470292  0.25268232  1.00121148  1
  N  N28  1  0.50424364  0.49138674  0.75170512  1
  N  N29  1  0.49244323  0.00675684  0.75042352  1
  N  N30  1  0.98802371  0.49205231  0.75979253  1
  N  N31  1  0.00526180  0.00978595  0.76112279  1
