# generated using pymatgen
data_TaTiNbNiN4
_symmetry_space_group_name_H-M   'P 1'
_cell_length_a   6.10911814
_cell_length_b   6.25345398
_cell_length_c   8.96465734
_cell_angle_alpha   89.21816261
_cell_angle_beta   89.31460145
_cell_angle_gamma   89.62116645
_symmetry_Int_Tables_number   1
_chemical_formula_structural   TaTiNbNiN4
_chemical_formula_sum   'Ta4 Ti4 Nb4 Ni4 N16'
_cell_volume   342.41409465
_cell_formula_units_Z   4
loop_
 _symmetry_equiv_pos_site_id
 _symmetry_equiv_pos_as_xyz
  1  'x, y, z'
loop_
 _atom_site_type_symbol
 _atom_site_label
 _atom_site_symmetry_multiplicity
 _atom_site_fract_x
 _atom_site_fract_y
 _atom_site_fract_z
 _atom_site_occupancy
  Ta  Ta0  1  0.73509301  0.23458233  0.74878231  1
  Ta  Ta1  1  0.74531800  0.73074947  0.75551509  1
  Ta  Ta2  1  0.49120839  0.49658758  0.48864686  1
  Ta  Ta3  1  0.98613722  1.01293729  0.01857549  1
  Ti  Ti4  1  0.49957642  -0.00213505  0.49106650  1
  Ti  Ti5  1  0.74783350  0.24707479  0.25869830  1
  Ti  Ti6  1  0.25098797  0.25724126  0.25296924  1
  Ti  Ti7  1  0.49311515  0.99643202  0.02542847  1
  Nb  Nb8  1  0.23816727  0.77110217  0.75492580  1
  Nb  Nb9  1  0.00239441  0.99979657  0.49209407  1
  Nb  Nb10  1  -0.00455177  0.51042579  0.48846476  1
  Nb  Nb11  1  0.25126778  0.75924428  0.24934167  1
  Ni  Ni12  1  0.26525985  0.37127756  0.82336296  1
  Ni  Ni13  1  0.76750932  0.63076623  0.14694460  1
  Ni  Ni14  1  0.49911770  0.40617390  0.04981795  1
  Ni  Ni15  1  0.11707098  0.51733921  0.04206027  1
  N  N16  1  0.74170094  0.75515656  0.50668459  1
  N  N17  1  0.74062386  0.24885431  0.49746410  1
  N  N18  1  0.25516139  0.75495639  0.49837485  1
  N  N19  1  0.25326813  0.24983852  0.48698479  1
  N  N20  1  0.51234971  0.50527396  0.26098851  1
  N  N21  1  0.49313211  0.01132352  0.25647389  1
  N  N22  1  0.73513181  0.79093383  0.97462151  1
  N  N23  1  0.73471643  0.22724478  0.98100595  1
  N  N24  1  1.00126543  0.49215135  0.25580530  1
  N  N25  1  1.00093593  0.01674050  0.24887558  1
  N  N26  1  0.23640474  0.79509711  0.99443308  1
  N  N27  1  0.23708592  0.22890982  0.01425020  1
  N  N28  1  0.50194001  0.50351521  0.72260162  1
  N  N29  1  0.50641001  0.99124572  0.73825800  1
  N  N30  1  0.98590532  0.49561816  0.72937815  1
  N  N31  1  0.98004427  0.99533118  0.74664478  1
