# generated using pymatgen
data_TaTiNbOsN4
_symmetry_space_group_name_H-M   'P 1'
_cell_length_a   6.32909933
_cell_length_b   6.36437584
_cell_length_c   8.82715034
_cell_angle_alpha   87.54755527
_cell_angle_beta   88.59132751
_cell_angle_gamma   91.83469222
_symmetry_Int_Tables_number   1
_chemical_formula_structural   TaTiNbOsN4
_chemical_formula_sum   'Ta4 Ti4 Nb4 Os4 N16'
_cell_volume   354.93666466
_cell_formula_units_Z   4
loop_
 _symmetry_equiv_pos_site_id
 _symmetry_equiv_pos_as_xyz
  1  'x, y, z'
loop_
 _atom_site_type_symbol
 _atom_site_label
 _atom_site_symmetry_multiplicity
 _atom_site_fract_x
 _atom_site_fract_y
 _atom_site_fract_z
 _atom_site_occupancy
  Ta  Ta0  1  0.73574823  0.25073203  0.74212957  1
  Ta  Ta1  1  0.70673848  0.70710626  0.75684464  1
  Ta  Ta2  1  0.48737438  0.48641347  0.48352319  1
  Ta  Ta3  1  1.05183767  1.04823734  -0.02640959  1
  Ti  Ti4  1  0.49337063  0.00294133  0.50227652  1
  Ti  Ti5  1  0.77286700  0.25621937  0.25411965  1
  Ti  Ti6  1  0.28914131  0.24739459  0.23750624  1
  Ti  Ti7  1  0.50174325  -0.02575823  1.01578118  1
  Nb  Nb8  1  0.19913281  0.74775182  0.75100624  1
  Nb  Nb9  1  0.01398276  1.01344965  0.51353682  1
  Nb  Nb10  1  0.98524079  0.53922439  0.47890269  1
  Nb  Nb11  1  0.24447731  0.75717926  0.25241564  1
  Os  Os12  1  0.31890787  0.20706176  0.73427765  1
  Os  Os13  1  0.80251608  0.84380640  0.29353639  1
  Os  Os14  1  0.58465379  0.41201616  0.03555905  1
  Os  Os15  1  0.94469962  0.62892590  1.06984495  1
  N  N16  1  0.71962528  0.75517362  0.51065743  1
  N  N17  1  0.74825396  0.26108902  0.49646571  1
  N  N18  1  0.25475943  0.75707388  0.50015270  1
  N  N19  1  0.25160653  0.25305280  0.48972802  1
  N  N20  1  0.49153661  0.50628909  0.25108460  1
  N  N21  1  0.51019071  -0.00072826  0.26092125  1
  N  N22  1  0.67451703  0.71444222  -0.01353783  1
  N  N23  1  0.76077591  0.17743553  0.98312269  1
  N  N24  1  0.04557603  0.46205224  0.24826570  1
  N  N25  1  0.03027623  0.04736425  0.23162621  1
  N  N26  1  0.22270788  0.77191443  -0.00039519  1
  N  N27  1  0.30915028  0.23807314  0.98928390  1
  N  N28  1  0.45691250  0.49756817  0.72467391  1
  N  N29  1  0.50124796  0.95979764  0.75295335  1
  N  N30  1  -0.04842995  0.50410974  0.72828690  1
  N  N31  1  0.93929324  -0.02823722  0.75069171  1
