# generated using pymatgen
data_HfTaTiNbN4
_symmetry_space_group_name_H-M   'P 1'
_cell_length_a   6.26619976
_cell_length_b   6.26193905
_cell_length_c   8.83481135
_cell_angle_alpha   89.83597096
_cell_angle_beta   90.03342336
_cell_angle_gamma   89.40350295
_symmetry_Int_Tables_number   1
_chemical_formula_structural   HfTaTiNbN4
_chemical_formula_sum   'Hf4 Ta4 Ti4 Nb4 N16'
_cell_volume   346.64501182
_cell_formula_units_Z   4
loop_
 _symmetry_equiv_pos_site_id
 _symmetry_equiv_pos_as_xyz
  1  'x, y, z'
loop_
 _atom_site_type_symbol
 _atom_site_label
 _atom_site_symmetry_multiplicity
 _atom_site_fract_x
 _atom_site_fract_y
 _atom_site_fract_z
 _atom_site_occupancy
  Hf  Hf0  1  0.25169120  0.24248052  0.74772235  1
  Hf  Hf1  1  0.74976420  0.75742311  0.25639578  1
  Hf  Hf2  1  0.49981709  0.49771352  0.00287399  1
  Hf  Hf3  1  0.00382928  0.50242673  0.00341571  1
  Ta  Ta4  1  0.75199406  0.24175165  0.74182971  1
  Ta  Ta5  1  0.74811041  0.75467124  0.74117858  1
  Ta  Ta6  1  0.49340329  0.49790984  0.49377074  1
  Ta  Ta7  1  0.00356374  1.00044364  0.00615265  1
  Ti  Ti8  1  0.49769501  1.00025416  0.49388616  1
  Ti  Ti9  1  0.74695409  0.24706832  0.25430971  1
  Ti  Ti10  1  0.24884779  0.24681467  0.25350390  1
  Ti  Ti11  1  0.49674179  0.99703299  0.00728136  1
  Nb  Nb12  1  0.25074693  0.74942995  0.74264355  1
  Nb  Nb13  1  0.00174697  0.00291430  0.50049830  1
  Nb  Nb14  1  1.00694647  0.49995127  0.49813067  1
  Nb  Nb15  1  0.24369112  0.75735082  0.25555818  1
  N  N16  1  0.73917667  0.75089166  0.50390884  1
  N  N17  1  0.73774687  0.25103320  0.49807055  1
  N  N18  1  0.26275466  0.75586422  0.50004468  1
  N  N19  1  0.26240332  0.24772896  0.49724618  1
  N  N20  1  0.50085806  0.49433223  0.25109554  1
  N  N21  1  0.50175681  0.00863129  0.25059283  1
  N  N22  1  0.74635191  0.75482554  0.99857817  1
  N  N23  1  0.74991636  0.24501854  0.99938351  1
  N  N24  1  -0.00384771  0.49013315  0.24770329  1
  N  N25  1  0.99500097  0.01396691  0.24690613  1
  N  N26  1  0.25504986  0.75424858  0.99961832  1
  N  N27  1  0.25365629  0.24551235  0.00424984  1
  N  N28  1  0.50920472  0.49391955  0.74820097  1
  N  N29  1  0.50953857  0.00126606  0.74827343  1
  N  N30  1  -0.00667816  0.49639374  0.75255647  1
  N  N31  1  0.99360853  0.99876833  0.75611034  1
