# generated using pymatgen
data_TaTiNbIrN4
_symmetry_space_group_name_H-M   'P 1'
_cell_length_a   6.55239040
_cell_length_b   6.35647633
_cell_length_c   9.23523560
_cell_angle_alpha   91.30484976
_cell_angle_beta   91.46269616
_cell_angle_gamma   77.47119313
_symmetry_Int_Tables_number   1
_chemical_formula_structural   TaTiNbIrN4
_chemical_formula_sum   'Ta4 Ti4 Nb4 Ir4 N16'
_cell_volume   375.30811208
_cell_formula_units_Z   4
loop_
 _symmetry_equiv_pos_site_id
 _symmetry_equiv_pos_as_xyz
  1  'x, y, z'
loop_
 _atom_site_type_symbol
 _atom_site_label
 _atom_site_symmetry_multiplicity
 _atom_site_fract_x
 _atom_site_fract_y
 _atom_site_fract_z
 _atom_site_occupancy
  Ta  Ta0  1  0.84893080  0.28337931  0.81889649  1
  Ta  Ta1  1  0.76023632  0.76608969  0.75936390  1
  Ta  Ta2  1  0.47179595  0.44917453  0.49298222  1
  Ta  Ta3  1  -0.00847673  0.94344336  0.02795862  1
  Ti  Ti4  1  0.42052672  0.97257087  0.54100571  1
  Ti  Ti5  1  0.69596461  0.19392098  0.23797868  1
  Ti  Ti6  1  0.20678598  0.26130739  0.21827604  1
  Ti  Ti7  1  0.46642185  0.03055018  0.97774611  1
  Nb  Nb8  1  0.26632223  0.66638401  0.78917955  1
  Nb  Nb9  1  -0.01444960  0.02687780  0.47493851  1
  Nb  Nb10  1  0.99363878  0.53733272  0.45768079  1
  Nb  Nb11  1  0.30435035  0.74461754  0.23873056  1
  Ir  Ir12  1  0.47106284  0.24519801  0.74136126  1
  Ir  Ir13  1  0.65918091  0.84438892  0.34585681  1
  Ir  Ir14  1  0.46747872  0.46104877  0.01557843  1
  Ir  Ir15  1  1.02156658  0.51599081  0.99640030  1
  N  N16  1  0.78325794  0.83349319  0.54376143  1
  N  N17  1  0.78182604  0.32714243  0.44372569  1
  N  N18  1  0.24167609  0.73642155  0.50003985  1
  N  N19  1  0.22637863  0.25047372  0.46357541  1
  N  N20  1  0.44663986  0.42973261  0.25862244  1
  N  N21  1  0.46509993  0.01013485  0.20060423  1
  N  N22  1  0.76279193  0.78252566  0.97709702  1
  N  N23  1  0.72015761  0.20402365  0.01821086  1
  N  N24  1  0.03605390  0.56459248  0.23922935  1
  N  N25  1  0.02842876  0.01839113  0.24667646  1
  N  N26  1  0.30853204  0.77745682  0.00467929  1
  N  N27  1  0.14683472  0.19702021  0.99644947  1
  N  N28  1  0.59204061  0.51110639  0.69978059  1
  N  N29  1  0.43479808  0.93437003  0.76007512  1
  N  N30  1  1.00996726  0.51282543  0.73218673  1
  N  N31  1  0.98464650  0.96581801  0.78097143  1
