# generated using pymatgen
data_TaTiNbMoN4
_symmetry_space_group_name_H-M   'P 1'
_cell_length_a   6.04128022
_cell_length_b   6.07394816
_cell_length_c   10.03493739
_cell_angle_alpha   90.25245968
_cell_angle_beta   90.19613894
_cell_angle_gamma   90.53392890
_symmetry_Int_Tables_number   1
_chemical_formula_structural   TaTiNbMoN4
_chemical_formula_sum   'Ta4 Ti4 Nb4 Mo4 N16'
_cell_volume   368.20446357
_cell_formula_units_Z   4
loop_
 _symmetry_equiv_pos_site_id
 _symmetry_equiv_pos_as_xyz
  1  'x, y, z'
loop_
 _atom_site_type_symbol
 _atom_site_label
 _atom_site_symmetry_multiplicity
 _atom_site_fract_x
 _atom_site_fract_y
 _atom_site_fract_z
 _atom_site_occupancy
  Ta  Ta0  1  0.73560723  0.26755310  0.80884370  1
  Ta  Ta1  1  0.73236290  0.76872847  0.78131701  1
  Ta  Ta2  1  0.51053362  0.49379295  0.45526244  1
  Ta  Ta3  1  0.01169655  -0.00178286  1.01041572  1
  Ti  Ti4  1  0.51103669  0.99196386  0.44030486  1
  Ti  Ti5  1  0.75062182  0.24505764  0.23566042  1
  Ti  Ti6  1  0.25586940  0.24248157  0.23990267  1
  Ti  Ti7  1  0.49087895  0.00711635  1.02181486  1
  Nb  Nb8  1  0.23907580  0.74583960  0.79251095  1
  Nb  Nb9  1  0.00719843  0.99340706  0.44848539  1
  Nb  Nb10  1  0.01111186  0.49377090  0.45903014  1
  Nb  Nb11  1  0.24278614  0.74369995  0.23670674  1
  Mo  Mo12  1  0.23991102  0.26338181  0.81928560  1
  Mo  Mo13  1  0.76535568  0.72826332  0.21977489  1
  Mo  Mo14  1  0.51316362  0.51114315  1.02189608  1
  Mo  Mo15  1  0.97968820  0.51073608  1.01690187  1
  N  N16  1  0.75614636  0.74299534  0.44927592  1
  N  N17  1  0.75414204  0.24326761  0.45128728  1
  N  N18  1  0.26703980  0.74515588  0.45690793  1
  N  N19  1  0.26489855  0.24192739  0.45515164  1
  N  N20  1  0.50316046  0.49056087  0.24828300  1
  N  N21  1  0.50772521  -0.00541813  0.23596535  1
  N  N22  1  0.74262995  0.77348472  -0.00763177  1
  N  N23  1  0.74958171  0.23840070  0.01796877  1
  N  N24  1  1.00572521  0.47958792  0.23995106  1
  N  N25  1  -0.00267125  0.00211947  0.23134272  1
  N  N26  1  0.25408181  0.74890962  0.00889975  1
  N  N27  1  0.25035783  0.25950534  0.02660515  1
  N  N28  1  0.49298138  0.50904537  0.79325967  1
  N  N29  1  0.49122692  1.00922906  0.79761329  1
  N  N30  1  -0.01786997  0.50865781  0.79179995  1
  N  N31  1  0.98328841  1.00823227  0.79317430  1
