# generated using pymatgen
data_TaTiNbTcN4
_symmetry_space_group_name_H-M   'P 1'
_cell_length_a   6.19257646
_cell_length_b   6.16689950
_cell_length_c   8.74122429
_cell_angle_alpha   89.08932042
_cell_angle_beta   89.85802347
_cell_angle_gamma   89.90007572
_symmetry_Int_Tables_number   1
_chemical_formula_structural   TaTiNbTcN4
_chemical_formula_sum   'Ta4 Ti4 Nb4 Tc4 N16'
_cell_volume   333.77491002
_cell_formula_units_Z   4
loop_
 _symmetry_equiv_pos_site_id
 _symmetry_equiv_pos_as_xyz
  1  'x, y, z'
loop_
 _atom_site_type_symbol
 _atom_site_label
 _atom_site_symmetry_multiplicity
 _atom_site_fract_x
 _atom_site_fract_y
 _atom_site_fract_z
 _atom_site_occupancy
  Ta  Ta0  1  0.72130237  0.24215050  0.76456294  1
  Ta  Ta1  1  0.75503158  0.71663780  0.77923551  1
  Ta  Ta2  1  0.51246211  0.50693967  0.47145207  1
  Ta  Ta3  1  -0.00827745  0.95904461  1.00809547  1
  Ti  Ti4  1  0.50539906  0.00519259  0.49217724  1
  Ti  Ti5  1  0.75181047  0.25118863  0.24443901  1
  Ti  Ti6  1  0.26387772  0.25806266  0.24818326  1
  Ti  Ti7  1  0.49592584  0.02484388  1.00275625  1
  Nb  Nb8  1  0.23192617  0.73581958  0.76217525  1
  Nb  Nb9  1  0.01508786  1.01147214  0.49974102  1
  Nb  Nb10  1  -0.00707956  0.52271418  0.47552313  1
  Nb  Nb11  1  0.23583310  0.75260531  0.25668392  1
  Tc  Tc12  1  0.26675554  0.26649087  0.77113693  1
  Tc  Tc13  1  0.76059915  0.76039900  0.26438027  1
  Tc  Tc14  1  0.47212906  0.47939999  0.98845759  1
  Tc  Tc15  1  0.03397586  0.50056503  0.98780774  1
  N  N16  1  0.74525094  0.76436107  0.51741173  1
  N  N17  1  0.74761121  0.25604229  0.49939813  1
  N  N18  1  0.26619755  0.75675368  0.50620917  1
  N  N19  1  0.26287264  0.26697288  0.49780752  1
  N  N20  1  0.50421505  0.50110161  0.23393758  1
  N  N21  1  0.50476722  0.00731624  0.25054824  1
  N  N22  1  0.72510937  0.74923288  0.01405354  1
  N  N23  1  0.76381223  0.24557987  1.00089484  1
  N  N24  1  0.99817269  0.48824100  0.22751006  1
  N  N25  1  0.99966438  1.01719714  0.25013845  1
  N  N26  1  0.27255618  0.76227268  0.00719700  1
  N  N27  1  0.22777248  0.22682417  1.00658191  1
  N  N28  1  0.50066312  0.50422305  0.72641155  1
  N  N29  1  0.50294484  0.98904344  0.75271605  1
  N  N30  1  -0.01196821  0.47577743  0.73377502  1
  N  N31  1  0.98570114  0.99678997  0.75914930  1
