# generated using pymatgen
data_TaTiNbAgN4
_symmetry_space_group_name_H-M   'P 1'
_cell_length_a   6.07512390
_cell_length_b   6.09577273
_cell_length_c   10.58892927
_cell_angle_alpha   94.84264412
_cell_angle_beta   91.39751586
_cell_angle_gamma   89.86169255
_symmetry_Int_Tables_number   1
_chemical_formula_structural   TaTiNbAgN4
_chemical_formula_sum   'Ta4 Ti4 Nb4 Ag4 N16'
_cell_volume   390.61925941
_cell_formula_units_Z   4
loop_
 _symmetry_equiv_pos_site_id
 _symmetry_equiv_pos_as_xyz
  1  'x, y, z'
loop_
 _atom_site_type_symbol
 _atom_site_label
 _atom_site_symmetry_multiplicity
 _atom_site_fract_x
 _atom_site_fract_y
 _atom_site_fract_z
 _atom_site_occupancy
  Ta  Ta0  1  0.75940600  0.28663175  0.72428714  1
  Ta  Ta1  1  0.71479187  0.77839125  0.74572183  1
  Ta  Ta2  1  0.49621852  0.49588884  0.49065034  1
  Ta  Ta3  1  0.97219802  0.05044497  -0.05597294  1
  Ti  Ti4  1  0.49032487  0.99622062  0.49650138  1
  Ti  Ti5  1  0.73753218  0.20955888  0.30255655  1
  Ti  Ti6  1  0.22785009  0.21404221  0.27163914  1
  Ti  Ti7  1  0.42504756  0.93133314  0.04930940  1
  Nb  Nb8  1  0.22951245  0.76660718  0.71883729  1
  Nb  Nb9  1  0.99607169  0.99606364  0.50511469  1
  Nb  Nb10  1  0.99356039  0.49702887  0.49169488  1
  Nb  Nb11  1  0.23280937  0.72213918  0.29380471  1
  Ag  Ag12  1  0.34263196  0.28032002  0.84804780  1
  Ag  Ag13  1  0.81585116  0.77911248  0.15057726  1
  Ag  Ag14  1  0.60589438  0.38083218  0.08031524  1
  Ag  Ag15  1  0.16268246  0.53750659  0.04028895  1
  N  N16  1  0.73377408  0.75093117  0.51330980  1
  N  N17  1  0.73601981  0.24286340  0.49875218  1
  N  N18  1  0.25140901  0.74761651  0.49845972  1
  N  N19  1  0.25066364  0.24402869  0.49194548  1
  N  N20  1  0.47639621  0.45243123  0.29848556  1
  N  N21  1  0.47019690  -0.03353011  0.27719711  1
  N  N22  1  0.70448488  0.86333265  0.93750279  1
  N  N23  1  0.81437554  0.32164398  0.90526447  1
  N  N24  1  0.98731347  0.44990971  0.29652829  1
  N  N25  1  0.99155823  -0.02248878  0.30991687  1
  N  N26  1  0.23650623  0.81780123  0.90782155  1
  N  N27  1  0.18611711  0.14924057  0.08781497  1
  N  N28  1  0.50289110  0.52403380  0.70183078  1
  N  N29  1  0.50498588  0.01776374  0.69571167  1
  N  N30  1  0.97364409  0.53689971  0.70178681  1
  N  N31  1  0.97739848  1.01408990  0.72404401  1
