# generated using pymatgen
data_TaTiNbFeN4
_symmetry_space_group_name_H-M   'P 1'
_cell_length_a   6.16616941
_cell_length_b   6.28625274
_cell_length_c   8.76753546
_cell_angle_alpha   90.37348034
_cell_angle_beta   89.03614373
_cell_angle_gamma   91.02845122
_symmetry_Int_Tables_number   1
_chemical_formula_structural   TaTiNbFeN4
_chemical_formula_sum   'Ta4 Ti4 Nb4 Fe4 N16'
_cell_volume   339.73868529
_cell_formula_units_Z   4
loop_
 _symmetry_equiv_pos_site_id
 _symmetry_equiv_pos_as_xyz
  1  'x, y, z'
loop_
 _atom_site_type_symbol
 _atom_site_label
 _atom_site_symmetry_multiplicity
 _atom_site_fract_x
 _atom_site_fract_y
 _atom_site_fract_z
 _atom_site_occupancy
  Ta  Ta0  1  0.76832859  0.27309533  0.74927913  1
  Ta  Ta1  1  0.72082629  0.76728492  0.74307747  1
  Ta  Ta2  1  0.48239998  0.50678888  0.49040581  1
  Ta  Ta3  1  1.00336230  0.98594573  0.00913262  1
  Ti  Ti4  1  0.48955721  0.01482960  0.49743865  1
  Ti  Ti5  1  0.74984869  0.23419185  0.25678813  1
  Ti  Ti6  1  0.25251822  0.24777155  0.25401938  1
  Ti  Ti7  1  0.49963092  0.00107022  0.01406385  1
  Nb  Nb8  1  0.22525828  0.76506837  0.74909657  1
  Nb  Nb9  1  0.00076878  1.00706770  0.49659114  1
  Nb  Nb10  1  0.98686616  0.52662822  0.49036760  1
  Nb  Nb11  1  0.24404393  0.75194775  0.23584169  1
  Fe  Fe12  1  0.35609912  0.27473096  0.81238186  1
  Fe  Fe13  1  0.76745994  0.65362265  0.16090362  1
  Fe  Fe14  1  0.52369882  0.40211804  0.04799649  1
  Fe  Fe15  1  0.01654985  0.41693470  0.03888314  1
  N  N16  1  0.72783992  0.76947156  0.50262827  1
  N  N17  1  0.73813901  0.26021690  0.50188471  1
  N  N18  1  0.25448342  0.76158193  0.49545478  1
  N  N19  1  0.24524196  0.26530097  0.49203150  1
  N  N20  1  0.50746719  0.49772414  0.25160341  1
  N  N21  1  0.48705959  0.00979867  0.25603056  1
  N  N22  1  0.73608549  0.78603114  0.97994199  1
  N  N23  1  0.76701835  0.23585183  1.00062531  1
  N  N24  1  -0.00193487  0.48564691  0.24667383  1
  N  N25  1  1.00265079  0.00769412  0.25203438  1
  N  N26  1  0.24989479  0.77732025  0.99175071  1
  N  N27  1  0.25693392  0.23645967  1.01186133  1
  N  N28  1  0.49559888  0.51391349  0.73273119  1
  N  N29  1  0.49718970  0.02391819  0.75026416  1
  N  N30  1  0.96948582  0.53185540  0.73921262  1
  N  N31  1  0.98091956  0.01009152  0.74939701  1
