# generated using pymatgen
data_TaTiNbPtN4
_symmetry_space_group_name_H-M   'P 1'
_cell_length_a   6.02863971
_cell_length_b   6.16814084
_cell_length_c   10.37603809
_cell_angle_alpha   86.89057582
_cell_angle_beta   92.48728084
_cell_angle_gamma   89.92698068
_symmetry_Int_Tables_number   1
_chemical_formula_structural   TaTiNbPtN4
_chemical_formula_sum   'Ta4 Ti4 Nb4 Pt4 N16'
_cell_volume   384.90458960
_cell_formula_units_Z   4
loop_
 _symmetry_equiv_pos_site_id
 _symmetry_equiv_pos_as_xyz
  1  'x, y, z'
loop_
 _atom_site_type_symbol
 _atom_site_label
 _atom_site_symmetry_multiplicity
 _atom_site_fract_x
 _atom_site_fract_y
 _atom_site_fract_z
 _atom_site_occupancy
  Ta  Ta0  1  0.76945828  0.21268535  0.72805366  1
  Ta  Ta1  1  0.76211259  0.70611964  0.74366770  1
  Ta  Ta2  1  0.48016324  0.47798754  0.49156072  1
  Ta  Ta3  1  0.03311571  0.96457608  0.01289441  1
  Ti  Ti4  1  0.49782659  0.98525775  0.49872061  1
  Ti  Ti5  1  0.73295805  0.27916887  0.29268314  1
  Ti  Ti6  1  0.24432053  0.26148190  0.22020252  1
  Ti  Ti7  1  0.54406057  0.97665775  0.94196353  1
  Nb  Nb8  1  0.25526168  0.70850288  0.73274285  1
  Nb  Nb9  1  1.00228439  0.99604810  0.49669838  1
  Nb  Nb10  1  0.98862802  0.49628634  0.49150537  1
  Nb  Nb11  1  0.19884306  0.77155121  0.28463660  1
  Pt  Pt12  1  0.38794580  0.34741728  0.88376469  1
  Pt  Pt13  1  0.69860930  0.90290225  0.18661627  1
  Pt  Pt14  1  0.38705202  0.63631776  0.08402887  1
  Pt  Pt15  1  0.90928460  0.56581495  0.10188920  1
  N  N16  1  0.73192881  0.73465631  0.51041077  1
  N  N17  1  0.73777006  0.23858639  0.49819826  1
  N  N18  1  0.25264551  0.73992418  0.50076217  1
  N  N19  1  0.25052196  0.23590135  0.50552884  1
  N  N20  1  0.45703422  0.48962212  0.29175120  1
  N  N21  1  0.46196151  0.03311759  0.30356399  1
  N  N22  1  0.81296208  0.72597759  0.92886216  1
  N  N23  1  0.83610818  0.16577824  0.91085200  1
  N  N24  1  0.99145676  0.48302152  0.28871393  1
  N  N25  1  0.98607509  0.03901027  0.28229312  1
  N  N26  1  0.26269668  0.80587184  0.91445062  1
  N  N27  1  0.29253809  0.17609660  0.04173493  1
  N  N28  1  0.51753700  0.46383721  0.71301035  1
  N  N29  1  0.52669012  0.95493901  0.71821548  1
  N  N30  1  0.99304936  0.47310096  0.70228895  1
  N  N31  1  0.99586910  0.95359378  0.69772210  1
