# generated using pymatgen
data_TaTiNbRhN4
_symmetry_space_group_name_H-M   'P 1'
_cell_length_a   6.05849849
_cell_length_b   6.07437609
_cell_length_c   10.21497418
_cell_angle_alpha   93.77377986
_cell_angle_beta   89.22727086
_cell_angle_gamma   90.33348104
_symmetry_Int_Tables_number   1
_chemical_formula_structural   TaTiNbRhN4
_chemical_formula_sum   'Ta4 Ti4 Nb4 Rh4 N16'
_cell_volume   375.07355273
_cell_formula_units_Z   4
loop_
 _symmetry_equiv_pos_site_id
 _symmetry_equiv_pos_as_xyz
  1  'x, y, z'
loop_
 _atom_site_type_symbol
 _atom_site_label
 _atom_site_symmetry_multiplicity
 _atom_site_fract_x
 _atom_site_fract_y
 _atom_site_fract_z
 _atom_site_occupancy
  Ta  Ta0  1  0.77889717  0.25858968  0.74016261  1
  Ta  Ta1  1  0.74900679  0.75761277  0.74724135  1
  Ta  Ta2  1  0.49344065  0.47351268  0.50570893  1
  Ta  Ta3  1  1.00199561  0.98198385  0.03043943  1
  Ti  Ti4  1  0.50233294  0.98271303  0.49984852  1
  Ti  Ti5  1  0.75584027  0.20683030  0.28922565  1
  Ti  Ti6  1  0.26225197  0.20974137  0.26058859  1
  Ti  Ti7  1  0.47996510  0.06916719  0.93077652  1
  Nb  Nb8  1  0.24155129  0.77007149  0.72039829  1
  Nb  Nb9  1  -0.00183180  0.97258115  0.48039531  1
  Nb  Nb10  1  0.00037480  0.48214865  0.48759810  1
  Nb  Nb11  1  0.25276402  0.70658311  0.26943122  1
  Rh  Rh12  1  0.33863469  0.46662059  0.89376353  1
  Rh  Rh13  1  0.59985527  0.87079945  0.12097764  1
  Rh  Rh14  1  0.52060810  0.42994987  0.11653395  1
  Rh  Rh15  1  0.95333326  0.41937970  0.08679946  1
  N  N16  1  0.73863300  0.73278045  0.51380972  1
  N  N17  1  0.74669599  0.22965078  0.50410317  1
  N  N18  1  0.25701445  0.73340349  0.49432745  1
  N  N19  1  0.25063761  0.22493344  0.49049563  1
  N  N20  1  0.50575592  0.45497342  0.31120681  1
  N  N21  1  0.49673084  0.97097210  0.29985371  1
  N  N22  1  0.73781972  0.82296374  0.93870969  1
  N  N23  1  0.83749682  0.23343270  0.92487044  1
  N  N24  1  0.00776908  0.45751824  0.28375876  1
  N  N25  1  0.01822366  0.96797916  0.24982371  1
  N  N26  1  0.22734632  0.82101427  0.91996203  1
  N  N27  1  0.24262831  0.25329051  0.04546347  1
  N  N28  1  0.51061697  0.51021663  0.72051312  1
  N  N29  1  0.51582928  0.01020345  0.72133521  1
  N  N30  1  0.98646906  0.51672124  0.70753234  1
  N  N31  1  0.99081670  1.00127651  0.69622694  1
