# generated using pymatgen
data_TaTiNbCuN4
_symmetry_space_group_name_H-M   'P 1'
_cell_length_a   6.17925347
_cell_length_b   6.27869110
_cell_length_c   8.91339986
_cell_angle_alpha   90.49147009
_cell_angle_beta   90.48907781
_cell_angle_gamma   89.70699738
_symmetry_Int_Tables_number   1
_chemical_formula_structural   TaTiNbCuN4
_chemical_formula_sum   'Ta4 Ti4 Nb4 Cu4 N16'
_cell_volume   345.78901980
_cell_formula_units_Z   4
loop_
 _symmetry_equiv_pos_site_id
 _symmetry_equiv_pos_as_xyz
  1  'x, y, z'
loop_
 _atom_site_type_symbol
 _atom_site_label
 _atom_site_symmetry_multiplicity
 _atom_site_fract_x
 _atom_site_fract_y
 _atom_site_fract_z
 _atom_site_occupancy
  Ta  Ta0  1  0.75232337  0.23209300  0.75413730  1
  Ta  Ta1  1  0.76122605  0.73371432  0.73926973  1
  Ta  Ta2  1  0.49444083  0.47211835  0.49249642  1
  Ta  Ta3  1  0.02563756  -0.00388660  0.99837562  1
  Ti  Ti4  1  0.50539658  -0.00326074  0.48889096  1
  Ti  Ti5  1  0.76387323  0.23761031  0.23928416  1
  Ti  Ti6  1  0.26813043  0.24107852  0.24250649  1
  Ti  Ti7  1  0.51891148  -0.00804151  1.01410406  1
  Nb  Nb8  1  0.27028019  0.76477543  0.73398882  1
  Nb  Nb9  1  0.01230449  -0.00131199  0.48570859  1
  Nb  Nb10  1  0.00240731  0.49126368  0.48105396  1
  Nb  Nb11  1  0.23214222  0.74438464  0.24989809  1
  Cu  Cu12  1  0.15802235  0.38723010  0.87397887  1
  Cu  Cu13  1  0.68008263  0.74041451  0.27388263  1
  Cu  Cu14  1  0.46060004  0.53388516  0.04131582  1
  Cu  Cu15  1  0.89306803  0.56318678  0.07172582  1
  N  N16  1  0.74999525  0.74553162  0.49841470  1
  N  N17  1  0.75061513  0.23796054  0.49107205  1
  N  N18  1  0.26253594  0.74161593  0.49028005  1
  N  N19  1  0.26009891  0.23710968  0.48831540  1
  N  N20  1  0.49916695  0.47258937  0.26106621  1
  N  N21  1  0.50568676  0.00377091  0.24536488  1
  N  N22  1  0.76731438  0.78118280  0.96049974  1
  N  N23  1  0.76173607  0.21249677  0.98184945  1
  N  N24  1  0.02065988  0.46243644  0.25004908  1
  N  N25  1  0.01577820  1.00784308  0.23564444  1
  N  N26  1  0.27611439  0.77904303  0.98263597  1
  N  N27  1  0.28017734  0.21263933  0.01640351  1
  N  N28  1  0.53260322  0.49667212  0.72501645  1
  N  N29  1  0.52165665  0.99330434  0.73629247  1
  N  N30  1  0.99640677  0.49972184  0.71970608  1
  N  N31  1  0.00158228  0.99113707  0.73782741  1
