# generated using pymatgen
data_TaTiNbCrN4
_symmetry_space_group_name_H-M   'P 1'
_cell_length_a   6.16346416
_cell_length_b   6.18160977
_cell_length_c   8.50397040
_cell_angle_alpha   89.49001967
_cell_angle_beta   89.89328310
_cell_angle_gamma   90.60209252
_symmetry_Int_Tables_number   1
_chemical_formula_structural   TaTiNbCrN4
_chemical_formula_sum   'Ta4 Ti4 Nb4 Cr4 N16'
_cell_volume   323.97103675
_cell_formula_units_Z   4
loop_
 _symmetry_equiv_pos_site_id
 _symmetry_equiv_pos_as_xyz
  1  'x, y, z'
loop_
 _atom_site_type_symbol
 _atom_site_label
 _atom_site_symmetry_multiplicity
 _atom_site_fract_x
 _atom_site_fract_y
 _atom_site_fract_z
 _atom_site_occupancy
  Ta  Ta0  1  0.74700358  0.25737610  0.75105630  1
  Ta  Ta1  1  0.75280867  0.76592100  0.74819925  1
  Ta  Ta2  1  0.49573400  0.49268504  0.49650496  1
  Ta  Ta3  1  -0.00149972  -0.00036307  0.00370332  1
  Ti  Ti4  1  0.50545736  0.00181486  0.49461277  1
  Ti  Ti5  1  0.74767764  0.24668814  0.24925005  1
  Ti  Ti6  1  0.25008968  0.25060772  0.25049406  1
  Ti  Ti7  1  0.49332804  -0.00157843  0.00302848  1
  Nb  Nb8  1  0.24415663  0.75179679  0.74778568  1
  Nb  Nb9  1  0.00288147  -0.00923419  0.49642146  1
  Nb  Nb10  1  1.00797901  0.50218559  0.50104655  1
  Nb  Nb11  1  0.24867189  0.75271607  0.25058086  1
  Cr  Cr12  1  0.25724488  0.23846981  0.75872022  1
  Cr  Cr13  1  0.74596745  0.73930544  0.24125075  1
  Cr  Cr14  1  0.49705133  0.50149523  0.00317994  1
  Cr  Cr15  1  0.00316241  0.49840722  0.00269666  1
  N  N16  1  0.73846270  0.74532447  0.48691870  1
  N  N17  1  0.74780689  0.25013588  0.49842651  1
  N  N18  1  0.26933193  0.75013852  0.50065625  1
  N  N19  1  0.25952371  0.24617691  0.51066837  1
  N  N20  1  0.50900767  0.49960023  0.24119336  1
  N  N21  1  0.50585663  0.00210155  0.24782590  1
  N  N22  1  0.74674591  0.74015629  0.00182091  1
  N  N23  1  0.75066717  0.25500595  0.00076940  1
  N  N24  1  0.98843667  0.50047972  0.23832253  1
  N  N25  1  0.98693908  -0.00141881  0.24595739  1
  N  N26  1  0.24900753  0.73476462  0.00083046  1
  N  N27  1  0.24951130  0.25724851  0.99621260  1
  N  N28  1  0.50158180  0.49577719  0.76146012  1
  N  N29  1  0.49519402  0.01450190  0.75076909  1
  N  N30  1  -0.00438870  0.49644607  0.76604032  1
  N  N31  1  1.00853842  0.02460209  0.75401715  1
