# generated using pymatgen
data_TaTiNbCdN4
_symmetry_space_group_name_H-M   'P 1'
_cell_length_a   6.22197672
_cell_length_b   6.37898831
_cell_length_c   9.10344481
_cell_angle_alpha   91.14086683
_cell_angle_beta   90.69401517
_cell_angle_gamma   90.23110354
_symmetry_Int_Tables_number   1
_chemical_formula_structural   TaTiNbCdN4
_chemical_formula_sum   'Ta4 Ti4 Nb4 Cd4 N16'
_cell_volume   361.21353887
_cell_formula_units_Z   4
loop_
 _symmetry_equiv_pos_site_id
 _symmetry_equiv_pos_as_xyz
  1  'x, y, z'
loop_
 _atom_site_type_symbol
 _atom_site_label
 _atom_site_symmetry_multiplicity
 _atom_site_fract_x
 _atom_site_fract_y
 _atom_site_fract_z
 _atom_site_occupancy
  Ta  Ta0  1  0.75819599  0.23871172  0.73253389  1
  Ta  Ta1  1  0.74873811  0.75273650  0.74079402  1
  Ta  Ta2  1  0.48795868  0.49558081  0.49347064  1
  Ta  Ta3  1  1.00464108  1.00279534  1.01451859  1
  Ti  Ti4  1  0.49734040  -0.00169486  0.49126029  1
  Ti  Ti5  1  0.75175417  0.24223694  0.27841798  1
  Ti  Ti6  1  0.25187761  0.24010098  0.26172892  1
  Ti  Ti7  1  0.50094109  0.00676117  0.02483115  1
  Nb  Nb8  1  0.24978492  0.76109875  0.73137202  1
  Nb  Nb9  1  1.00952426  0.99830899  0.49464970  1
  Nb  Nb10  1  0.00539213  0.49957458  0.49417860  1
  Nb  Nb11  1  0.24513664  0.75633637  0.26336769  1
  Cd  Cd12  1  0.26447039  0.25883234  0.76144625  1
  Cd  Cd13  1  0.74710498  0.74233335  0.25086640  1
  Cd  Cd14  1  0.49337005  0.50581701  0.00943770  1
  Cd  Cd15  1  0.98866302  0.49771379  0.01146879  1
  N  N16  1  0.74399029  0.75146379  0.50866434  1
  N  N17  1  0.74528827  0.24390121  0.50114856  1
  N  N18  1  0.26069285  0.75183883  0.49669741  1
  N  N19  1  0.26021652  0.24474472  0.49406333  1
  N  N20  1  0.48797704  0.47825376  0.26851317  1
  N  N21  1  0.49546314  0.01156560  0.25346660  1
  N  N22  1  0.74231489  0.78314404  0.97435081  1
  N  N23  1  0.74196676  0.22090054  0.97187412  1
  N  N24  1  0.00926361  0.47366000  0.26541138  1
  N  N25  1  0.00296646  0.01092177  0.24480440  1
  N  N26  1  0.24545283  0.78661656  0.99247619  1
  N  N27  1  0.24752719  0.22386087  0.02291301  1
  N  N28  1  0.52284094  0.51379531  0.73236379  1
  N  N29  1  0.51651270  0.99598645  0.73185699  1
  N  N30  1  0.98293024  0.51439038  0.73784411  1
  N  N31  1  -0.00959629  -0.00131590  0.74969010  1
