# generated using pymatgen
data_TaTiNbReN4
_symmetry_space_group_name_H-M   'P 1'
_cell_length_a   6.27775763
_cell_length_b   6.25834100
_cell_length_c   8.79382035
_cell_angle_alpha   88.66768150
_cell_angle_beta   90.26607919
_cell_angle_gamma   88.28318661
_symmetry_Int_Tables_number   1
_chemical_formula_structural   TaTiNbReN4
_chemical_formula_sum   'Ta4 Ti4 Nb4 Re4 N16'
_cell_volume   345.24129336
_cell_formula_units_Z   4
loop_
 _symmetry_equiv_pos_site_id
 _symmetry_equiv_pos_as_xyz
  1  'x, y, z'
loop_
 _atom_site_type_symbol
 _atom_site_label
 _atom_site_symmetry_multiplicity
 _atom_site_fract_x
 _atom_site_fract_y
 _atom_site_fract_z
 _atom_site_occupancy
  Ta  Ta0  1  0.74227462  0.21965044  0.74877953  1
  Ta  Ta1  1  0.77486460  0.70625687  0.77946387  1
  Ta  Ta2  1  0.48982297  0.48052059  0.47841068  1
  Ta  Ta3  1  -0.04024841  0.96906067  1.01382132  1
  Ti  Ti4  1  0.49824612  1.00034599  0.49312611  1
  Ti  Ti5  1  0.74156989  0.23707485  0.24852560  1
  Ti  Ti6  1  0.26186010  0.25726455  0.24148705  1
  Ti  Ti7  1  0.47553370  0.03095306  1.00036145  1
  Nb  Nb8  1  0.24683807  0.75266725  0.74758352  1
  Nb  Nb9  1  -0.00257488  -0.00180160  0.49645270  1
  Nb  Nb10  1  -0.00448446  0.51925900  0.47451081  1
  Nb  Nb11  1  0.23358792  0.75363302  0.25748724  1
  Re  Re12  1  0.30346542  0.32140194  0.79558922  1
  Re  Re13  1  0.75686270  0.76825622  0.26823799  1
  Re  Re14  1  0.53260730  0.49161138  1.00664943  1
  Re  Re15  1  0.11422113  0.52655640  1.01399411  1
  N  N16  1  0.73604023  0.75302312  0.51444625  1
  N  N17  1  0.74567911  0.24989270  0.49665790  1
  N  N18  1  0.26321119  0.75278747  0.50220871  1
  N  N19  1  0.25039032  0.25333372  0.47908861  1
  N  N20  1  0.51719534  0.50752730  0.24280629  1
  N  N21  1  0.49248802  0.00394511  0.25106135  1
  N  N22  1  0.69646944  0.76783467  0.01611442  1
  N  N23  1  0.73315382  0.23061571  -0.00123338  1
  N  N24  1  0.98847435  0.47914596  0.22980989  1
  N  N25  1  0.99901603  1.01788671  0.25131456  1
  N  N26  1  0.25991165  0.79579797  0.00088032  1
  N  N27  1  0.18602865  0.20783198  1.00198681  1
  N  N28  1  0.53074178  0.50963611  0.71591133  1
  N  N29  1  0.49994393  0.99949055  0.74824951  1
  N  N30  1  0.00398416  0.46512799  0.73286415  1
  N  N31  1  0.97177422  0.97294867  0.75357991  1
