# generated using pymatgen
data_TaTiNbAuN4
_symmetry_space_group_name_H-M   'P 1'
_cell_length_a   5.94140782
_cell_length_b   6.06995601
_cell_length_c   11.53487198
_cell_angle_alpha   95.37721678
_cell_angle_beta   89.83159560
_cell_angle_gamma   90.47781257
_symmetry_Int_Tables_number   1
_chemical_formula_structural   TaTiNbAuN4
_chemical_formula_sum   'Ta4 Ti4 Nb4 Au4 N16'
_cell_volume   414.14855502
_cell_formula_units_Z   4
loop_
 _symmetry_equiv_pos_site_id
 _symmetry_equiv_pos_as_xyz
  1  'x, y, z'
loop_
 _atom_site_type_symbol
 _atom_site_label
 _atom_site_symmetry_multiplicity
 _atom_site_fract_x
 _atom_site_fract_y
 _atom_site_fract_z
 _atom_site_occupancy
  Ta  Ta0  1  0.75320387  0.26191201  0.73092177  1
  Ta  Ta1  1  0.74979989  0.76644964  0.72991616  1
  Ta  Ta2  1  0.50841407  0.47365194  0.49561032  1
  Ta  Ta3  1  0.00292977  0.03722383  0.96863263  1
  Ti  Ti4  1  0.50989505  0.97861388  0.50164457  1
  Ti  Ti5  1  0.76536196  0.19665992  0.31870534  1
  Ti  Ti6  1  0.26632903  0.17417473  0.26222903  1
  Ti  Ti7  1  0.50036386  0.04519369  0.97255519  1
  Nb  Nb8  1  0.25123375  0.76119601  0.71713357  1
  Nb  Nb9  1  0.01464375  0.98113895  0.50349215  1
  Nb  Nb10  1  0.01090036  0.47737668  0.49884728  1
  Nb  Nb11  1  0.24467201  0.69497873  0.30252957  1
  Au  Au12  1  0.26204339  0.38228918  0.89002385  1
  Au  Au13  1  0.76375429  0.86427004  0.14082024  1
  Au  Au14  1  0.36029150  0.63815772  0.08003538  1
  Au  Au15  1  0.90502260  0.46793803  0.04828044  1
  N  N16  1  0.75257149  0.72996839  0.51188527  1
  N  N17  1  0.75451731  0.22675341  0.50162801  1
  N  N18  1  0.26629282  0.72774450  0.50312872  1
  N  N19  1  0.26339992  0.23009389  0.50753910  1
  N  N20  1  0.49656718  0.42587606  0.32008458  1
  N  N21  1  0.48574425  0.96000317  0.32688252  1
  N  N22  1  0.75829313  0.82549002  0.89802508  1
  N  N23  1  0.76830936  0.24785020  0.89723978  1
  N  N24  1  0.01933354  0.41847851  0.31585852  1
  N  N25  1  0.02129934  0.95213242  0.31846665  1
  N  N26  1  0.25774207  0.89733308  0.87650647  1
  N  N27  1  0.26738470  0.10067437  0.09847689  1
  N  N28  1  0.51966738  0.51724269  0.68894016  1
  N  N29  1  0.52240394  0.00856498  0.68852194  1
  N  N30  1  0.98818140  0.51973941  0.69367747  1
  N  N31  1  0.98954470  0.00870387  0.69090272  1
