# generated using pymatgen
data_TaTiNbCoN4
_symmetry_space_group_name_H-M   'P 1'
_cell_length_a   6.12016406
_cell_length_b   6.29917904
_cell_length_c   8.81168505
_cell_angle_alpha   90.01356007
_cell_angle_beta   90.00232821
_cell_angle_gamma   91.04551495
_symmetry_Int_Tables_number   1
_chemical_formula_structural   TaTiNbCoN4
_chemical_formula_sum   'Ta4 Ti4 Nb4 Co4 N16'
_cell_volume   339.65159675
_cell_formula_units_Z   4
loop_
 _symmetry_equiv_pos_site_id
 _symmetry_equiv_pos_as_xyz
  1  'x, y, z'
loop_
 _atom_site_type_symbol
 _atom_site_label
 _atom_site_symmetry_multiplicity
 _atom_site_fract_x
 _atom_site_fract_y
 _atom_site_fract_z
 _atom_site_occupancy
  Ta  Ta0  1  0.75446951  0.24496786  0.74997516  1
  Ta  Ta1  1  0.74329181  0.73986092  0.74895805  1
  Ta  Ta2  1  0.49620958  0.50467959  0.48919159  1
  Ta  Ta3  1  0.99954753  -0.00680178  0.01207070  1
  Ti  Ti4  1  0.49775366  0.00536889  0.49150736  1
  Ti  Ti5  1  0.75045338  0.24144857  0.25569437  1
  Ti  Ti6  1  0.25279824  0.24899766  0.25624636  1
  Ti  Ti7  1  0.50028223  0.00275946  0.01484134  1
  Nb  Nb8  1  0.24537465  0.78570250  0.74208929  1
  Nb  Nb9  1  0.00165708  0.00186314  0.49415355  1
  Nb  Nb10  1  0.00480177  0.50792636  0.49322909  1
  Nb  Nb11  1  0.24845473  0.73919855  0.22937913  1
  Co  Co12  1  0.25033477  0.41911692  0.84355972  1
  Co  Co13  1  0.75645219  0.64196809  0.15647754  1
  Co  Co14  1  0.50612704  0.40436172  0.04640787  1
  Co  Co15  1  0.00327443  0.41110998  0.04672483  1
  N  N16  1  0.74146355  0.75746386  0.50685376  1
  N  N17  1  0.74173807  0.25422293  0.49913431  1
  N  N18  1  0.26071974  0.75573274  0.48811328  1
  N  N19  1  0.25762939  0.25372589  0.49187247  1
  N  N20  1  0.50854136  0.49707319  0.25433031  1
  N  N21  1  0.48903326  0.01080909  0.25382134  1
  N  N22  1  0.73850305  0.78905910  0.97828684  1
  N  N23  1  0.75288457  0.23683279  0.98697760  1
  N  N24  1  -0.00411094  0.49325632  0.25406332  1
  N  N25  1  0.00446768  0.00837514  0.25060996  1
  N  N26  1  0.25048023  0.79044078  0.99005907  1
  N  N27  1  0.25128503  0.23260441  1.01221091  1
  N  N28  1  0.50191428  0.50484529  0.73023376  1
  N  N29  1  0.51339580  0.00477126  0.74257659  1
  N  N30  1  0.99188557  0.51049628  0.74099957  1
  N  N31  1  0.98868805  0.00807067  0.74845036  1
