# generated using pymatgen
data_HfTaTiNbVC5
_symmetry_space_group_name_H-M   'P 1'
_cell_length_a   7.01333425
_cell_length_b   4.45449441
_cell_length_c   7.01247899
_cell_angle_alpha   89.99858065
_cell_angle_beta   90.02263314
_cell_angle_gamma   89.99853110
_symmetry_Int_Tables_number   1
_chemical_formula_structural   HfTaTiNbVC5
_chemical_formula_sum   'Hf2 Ta2 Ti2 Nb2 V2 C10'
_cell_volume   219.07584474
_cell_formula_units_Z   2
loop_
 _symmetry_equiv_pos_site_id
 _symmetry_equiv_pos_as_xyz
  1  'x, y, z'
loop_
 _atom_site_type_symbol
 _atom_site_label
 _atom_site_symmetry_multiplicity
 _atom_site_fract_x
 _atom_site_fract_y
 _atom_site_fract_z
 _atom_site_occupancy
  Hf  Hf0  1  0.50075040  0.50005392  0.49814703  1
  Hf  Hf1  1  0.79993538  0.99983653  0.60808202  1
  Ta  Ta2  1  0.19876880  1.00010950  0.39305260  1
  Ta  Ta3  1  0.89977275  0.50007343  0.28411173  1
  Ti  Ti4  1  0.30335442  0.50012368  0.09410451  1
  Ti  Ti5  1  0.60169783  -0.00001917  0.19023814  1
  Nb  Nb6  1  0.39942250  0.00004930  0.81329211  1
  Nb  Nb7  1  0.09842917  0.50013523  0.71326169  1
  V  V8  1  0.70299159  0.49577682  0.90910896  1
  V  V9  1  0.99386834  0.00042324  0.99893466  1
  C  C10  1  0.70722501  0.00219213  0.91078841  1
  C  C11  1  0.49554992  1.00011407  0.49262738  1
  C  C12  1  0.60013302  0.50041198  0.18702143  1
  C  C13  1  0.90038545  0.00001595  0.28836527  1
  C  C14  1  0.99574296  0.50045875  -0.00129805  1
  C  C15  1  0.29354566  0.00012068  0.10072177  1
  C  C16  1  0.40940849  0.50015474  0.81051178  1
  C  C17  1  0.80268402  0.50011711  0.60562531  1
  C  C18  1  0.10361171  0.00008530  0.70769982  1
  C  C19  1  0.19442979  0.50009456  0.39424313  1
