# generated using pymatgen
data_HfTaTiNbVC5
_symmetry_space_group_name_H-M   'P 1'
_cell_length_a   7.01303487
_cell_length_b   4.45433466
_cell_length_c   7.01304059
_cell_angle_alpha   89.99982456
_cell_angle_beta   90.02491064
_cell_angle_gamma   89.99609008
_symmetry_Int_Tables_number   1
_chemical_formula_structural   HfTaTiNbVC5
_chemical_formula_sum   'Hf2 Ta2 Ti2 Nb2 V2 C10'
_cell_volume   219.07617621
_cell_formula_units_Z   2
loop_
 _symmetry_equiv_pos_site_id
 _symmetry_equiv_pos_as_xyz
  1  'x, y, z'
loop_
 _atom_site_type_symbol
 _atom_site_label
 _atom_site_symmetry_multiplicity
 _atom_site_fract_x
 _atom_site_fract_y
 _atom_site_fract_z
 _atom_site_occupancy
  Hf  Hf0  1  0.50063527  0.50004011  0.49823221  1
  Hf  Hf1  1  0.79984491  -0.00021862  0.60813949  1
  Ta  Ta2  1  0.19868978  1.00014189  0.39319608  1
  Ta  Ta3  1  0.89970218  0.49999890  0.28420848  1
  Ti  Ti4  1  0.30333599  0.50023113  0.09420002  1
  Ti  Ti5  1  0.60154490  0.00000095  0.19032965  1
  Nb  Nb6  1  0.39933620  0.00012983  0.81337363  1
  Nb  Nb7  1  0.09829401  0.50018904  0.71337319  1
  V  V8  1  0.70288070  0.49579723  0.90920468  1
  V  V9  1  0.99375968  0.00040405  0.99914290  1
  C  C10  1  0.70713441  0.00214579  0.91089609  1
  C  C11  1  0.49548074  0.00009248  0.49273174  1
  C  C12  1  0.60006034  0.50042765  0.18712272  1
  C  C13  1  0.90029295  -0.00006676  0.28850285  1
  C  C14  1  0.99570772  0.50047069  -0.00117452  1
  C  C15  1  0.29354542  1.00016614  0.10080876  1
  C  C16  1  0.40931352  0.50015991  0.81062039  1
  C  C17  1  0.80254721  0.50001998  0.60573175  1
  C  C18  1  0.10353720  -0.00005523  0.70777934  1
  C  C19  1  0.19433247  0.50008903  0.39439077  1
