# generated using pymatgen
data_HfTaTiNbVC5
_symmetry_space_group_name_H-M   'P 1'
_cell_length_a   7.01379011
_cell_length_b   4.45421796
_cell_length_c   7.01265394
_cell_angle_alpha   90.00161193
_cell_angle_beta   90.02509290
_cell_angle_gamma   90.00833217
_symmetry_Int_Tables_number   1
_chemical_formula_structural   HfTaTiNbVC5
_chemical_formula_sum   'Hf2 Ta2 Ti2 Nb2 V2 C10'
_cell_volume   219.08194692
_cell_formula_units_Z   2
loop_
 _symmetry_equiv_pos_site_id
 _symmetry_equiv_pos_as_xyz
  1  'x, y, z'
loop_
 _atom_site_type_symbol
 _atom_site_label
 _atom_site_symmetry_multiplicity
 _atom_site_fract_x
 _atom_site_fract_y
 _atom_site_fract_z
 _atom_site_occupancy
  Hf  Hf0  1  0.50076944  0.49999564  0.49808674  1
  Hf  Hf1  1  0.79998325  0.00018540  0.60814597  1
  Ta  Ta2  1  0.19879643  1.00001400  0.39297560  1
  Ta  Ta3  1  0.89981192  0.49986996  0.28414078  1
  Ti  Ti4  1  0.30339378  0.49983992  0.09409752  1
  Ti  Ti5  1  0.60178821  1.00014987  0.19024811  1
  Nb  Nb6  1  0.39935417  0.00011688  0.81321790  1
  Nb  Nb7  1  0.09837746  0.49978753  0.71332701  1
  V  V8  1  0.70289170  0.50416378  0.90922430  1
  V  V9  1  0.99356843  -0.00574106  0.99919870  1
  C  C10  1  0.70724800  0.99835578  0.91071262  1
  C  C11  1  0.49560333  0.99993771  0.49262300  1
  C  C12  1  0.60009836  0.49951893  0.18705241  1
  C  C13  1  0.90038521  1.00007524  0.28837540  1
  C  C14  1  0.99572371  0.50244244  -0.00132043  1
  C  C15  1  0.29369252  0.00027363  0.10067213  1
  C  C16  1  0.40940562  0.50000521  0.81045490  1
  C  C17  1  0.80266572  0.49986295  0.60557858  1
  C  C18  1  0.10361448  1.00001518  0.70776001  1
  C  C19  1  0.19446447  0.49998211  0.39420055  1
