# generated using pymatgen
data_TaTi15N16
_symmetry_space_group_name_H-M   'P 1'
_cell_length_a   6.03197094
_cell_length_b   6.03188513
_cell_length_c   8.53332140
_cell_angle_alpha   89.99823432
_cell_angle_beta   90.00172531
_cell_angle_gamma   90.00129979
_symmetry_Int_Tables_number   1
_chemical_formula_structural   TaTi15N16
_chemical_formula_sum   'Ta1 Ti15 N16'
_cell_volume   310.47769476
_cell_formula_units_Z   1
loop_
 _symmetry_equiv_pos_site_id
 _symmetry_equiv_pos_as_xyz
  1  'x, y, z'
loop_
 _atom_site_type_symbol
 _atom_site_label
 _atom_site_symmetry_multiplicity
 _atom_site_fract_x
 _atom_site_fract_y
 _atom_site_fract_z
 _atom_site_occupancy
  Ta  Ta0  1  0.25084392  0.75117220  0.74970146  1
  Ti  Ti1  1  0.74985768  0.24979721  0.74985877  1
  Ti  Ti2  1  0.75032396  0.74917080  0.74989878  1
  Ti  Ti3  1  0.24979782  0.25076549  0.75010226  1
  Ti  Ti4  1  0.50155012  0.00134283  0.49791862  1
  Ti  Ti5  1  0.50095354  0.49847362  0.49797879  1
  Ti  Ti6  1  0.75056907  0.24968424  0.24992025  1
  Ti  Ti7  1  0.74987565  0.74962843  0.24960751  1
  Ti  Ti8  1  0.99900325  0.00160667  0.49820447  1
  Ti  Ti9  1  0.99832294  0.49916049  0.49821515  1
  Ti  Ti10  1  0.24979184  0.25024926  0.24968650  1
  Ti  Ti11  1  0.24997801  0.75024517  0.25107019  1
  Ti  Ti12  1  0.50091005  0.00105672  0.00217467  1
  Ti  Ti13  1  0.50079783  0.49901047  0.00211122  1
  Ti  Ti14  1  0.99909942  0.00090002  0.00190645  1
  Ti  Ti15  1  0.99883309  0.49910679  0.00196126  1
  N  N16  1  0.74982746  0.75005295  0.49860993  1
  N  N17  1  0.75030084  0.25004933  0.49930946  1
  N  N18  1  0.25014529  0.74996539  0.49849257  1
  N  N19  1  0.25019485  0.25023811  0.49869057  1
  N  N20  1  0.50002107  0.49982629  0.24983187  1
  N  N21  1  0.50024780  0.00020277  0.25008000  1
  N  N22  1  0.75006719  0.74999515  0.00110868  1
  N  N23  1  0.75006522  0.24988056  0.00049353  1
  N  N24  1  1.00010467  0.50008651  0.25008228  1
  N  N25  1  -0.00002622  0.99985859  0.25022582  1
  N  N26  1  0.24981167  0.74998671  0.00240642  1
  N  N27  1  0.25004515  0.24986219  0.00123107  1
  N  N28  1  0.50161312  0.49810354  0.74994762  1
  N  N29  1  0.50215442  0.00162998  0.75006976  1
  N  N30  1  0.99860859  0.49810084  0.75007910  1
  N  N31  1  0.99819316  0.00161637  0.75010476  1
