# generated using pymatgen
data_TaTiNbPdN4
_symmetry_space_group_name_H-M   'P 1'
_cell_length_a   6.04447121
_cell_length_b   6.16534199
_cell_length_c   10.26702297
_cell_angle_alpha   87.06343378
_cell_angle_beta   88.14255941
_cell_angle_gamma   89.25307494
_symmetry_Int_Tables_number   1
_chemical_formula_structural   TaTiNbPdN4
_chemical_formula_sum   'Ta4 Ti4 Nb4 Pd4 N16'
_cell_volume   381.88526417
_cell_formula_units_Z   4
loop_
 _symmetry_equiv_pos_site_id
 _symmetry_equiv_pos_as_xyz
  1  'x, y, z'
loop_
 _atom_site_type_symbol
 _atom_site_label
 _atom_site_symmetry_multiplicity
 _atom_site_fract_x
 _atom_site_fract_y
 _atom_site_fract_z
 _atom_site_occupancy
  Ta  Ta0  1  0.77064087  0.21853178  0.72917890  1
  Ta  Ta1  1  0.74415432  0.71420910  0.74275724  1
  Ta  Ta2  1  0.49700459  0.48195148  0.49658238  1
  Ta  Ta3  1  -0.00696821  0.02572199  0.02784722  1
  Ti  Ti4  1  0.50023115  0.99273818  0.50314053  1
  Ti  Ti5  1  0.77356805  0.27631913  0.29277475  1
  Ti  Ti6  1  0.28251796  0.25706912  0.23040455  1
  Ti  Ti7  1  0.46885843  0.97553984  0.92135516  1
  Nb  Nb8  1  0.23827310  0.72059602  0.73617407  1
  Nb  Nb9  1  -0.00152137  0.97695292  0.48309143  1
  Nb  Nb10  1  0.01276133  0.48719602  0.48827432  1
  Nb  Nb11  1  0.27352494  0.76214788  0.27693400  1
  Pd  Pd12  1  0.17226562  0.34027856  0.88037737  1
  Pd  Pd13  1  0.74784760  0.86725317  0.21929874  1
  Pd  Pd14  1  0.55209486  0.56909892  0.09687200  1
  Pd  Pd15  1  0.05467735  0.59714802  0.08588048  1
  N  N16  1  0.74557230  0.73644598  0.51201273  1
  N  N17  1  0.75370916  0.23731517  0.49640580  1
  N  N18  1  0.26213163  0.74084665  0.49730498  1
  N  N19  1  0.25841361  0.24049221  0.50101620  1
  N  N20  1  0.50798833  0.48907470  0.29321801  1
  N  N21  1  0.49087679  0.03444352  0.30767845  1
  N  N22  1  0.64110122  0.71335097  0.92441345  1
  N  N23  1  0.75033632  0.15828528  0.91653299  1
  N  N24  1  0.03791980  0.48717586  0.28537695  1
  N  N25  1  0.03285790  0.03561907  0.26631381  1
  N  N26  1  0.14613356  0.81187679  0.91815586  1
  N  N27  1  0.28977710  0.16194816  0.04843331  1
  N  N28  1  0.52311368  0.47962041  0.69795330  1
  N  N29  1  0.50203198  0.97401910  0.71589689  1
  N  N30  1  0.99558640  0.47468616  0.71568011  1
  N  N31  1  0.98162186  0.96016107  0.69126986  1
