# generated using pymatgen
data_ZrTi15N16
_symmetry_space_group_name_H-M   'P 1'
_cell_length_a   6.04251578
_cell_length_b   6.04253948
_cell_length_c   8.56000096
_cell_angle_alpha   90.00168076
_cell_angle_beta   90.00173346
_cell_angle_gamma   90.00010117
_symmetry_Int_Tables_number   1
_chemical_formula_structural   ZrTi15N16
_chemical_formula_sum   'Zr1 Ti15 N16'
_cell_volume   312.54395463
_cell_formula_units_Z   1
loop_
 _symmetry_equiv_pos_site_id
 _symmetry_equiv_pos_as_xyz
  1  'x, y, z'
loop_
 _atom_site_type_symbol
 _atom_site_label
 _atom_site_symmetry_multiplicity
 _atom_site_fract_x
 _atom_site_fract_y
 _atom_site_fract_z
 _atom_site_occupancy
  Zr  Zr0  1  0.25001681  0.75003420  0.74969664  1
  Ti  Ti1  1  0.74977445  0.24990313  0.74943789  1
  Ti  Ti2  1  0.74998658  0.74964408  0.75079743  1
  Ti  Ti3  1  0.24977628  0.25027427  0.75091855  1
  Ti  Ti4  1  0.50170562  0.00178424  0.49558236  1
  Ti  Ti5  1  0.50217888  0.49828330  0.49562205  1
  Ti  Ti6  1  0.74979679  0.24963783  0.24996625  1
  Ti  Ti7  1  0.74926498  0.74970632  0.25007884  1
  Ti  Ti8  1  0.99864662  0.00202903  0.49567108  1
  Ti  Ti9  1  0.99839329  0.49829551  0.49550819  1
  Ti  Ti10  1  0.24970995  0.25067161  0.24987252  1
  Ti  Ti11  1  0.24937798  0.75083064  0.24987695  1
  Ti  Ti12  1  0.50189526  0.00162179  0.00411024  1
  Ti  Ti13  1  0.50131137  0.49739263  0.00441104  1
  Ti  Ti14  1  0.99782777  0.00133354  0.00430161  1
  Ti  Ti15  1  0.99805412  0.49864955  0.00424928  1
  N  N16  1  0.75072463  0.74976428  0.49827376  1
  N  N17  1  0.75022767  0.24915046  0.49789697  1
  N  N18  1  0.25067999  0.75007912  0.49209830  1
  N  N19  1  0.25043302  0.24990491  0.49817807  1
  N  N20  1  0.49966917  0.49998025  0.24984078  1
  N  N21  1  0.50002105  1.00078063  0.24997048  1
  N  N22  1  0.75037070  0.74978316  0.00214569  1
  N  N23  1  0.75048433  0.24997063  0.00148654  1
  N  N24  1  0.99950726  0.50030133  0.24980241  1
  N  N25  1  -0.00079299  0.00058609  0.24957421  1
  N  N26  1  0.25056468  0.74995045  0.00746956  1
  N  N27  1  0.25026707  0.24980894  0.00200502  1
  N  N28  1  0.50648950  0.49356688  0.75042869  1
  N  N29  1  0.50680514  0.00643789  0.74949052  1
  N  N30  1  0.99322955  0.49334074  0.74996734  1
  N  N31  1  0.99339244  0.00722362  0.75049411  1
