# generated using pymatgen
data_Ti15WN16
_symmetry_space_group_name_H-M   'P 1'
_cell_length_a   6.02257788
_cell_length_b   6.02263162
_cell_length_c   8.51819061
_cell_angle_alpha   89.99860376
_cell_angle_beta   90.00039117
_cell_angle_gamma   90.00048031
_symmetry_Int_Tables_number   1
_chemical_formula_structural   Ti15WN16
_chemical_formula_sum   'Ti15 W1 N16'
_cell_volume   308.96983329
_cell_formula_units_Z   1
loop_
 _symmetry_equiv_pos_site_id
 _symmetry_equiv_pos_as_xyz
  1  'x, y, z'
loop_
 _atom_site_type_symbol
 _atom_site_label
 _atom_site_symmetry_multiplicity
 _atom_site_fract_x
 _atom_site_fract_y
 _atom_site_fract_z
 _atom_site_occupancy
  Ti  Ti0  1  0.75234845  0.24936534  0.75046380  1
  Ti  Ti1  1  0.74848808  0.75007264  0.75020170  1
  Ti  Ti2  1  0.25196283  0.24911848  0.74981899  1
  Ti  Ti3  1  0.50039526  0.00054288  0.49930940  1
  Ti  Ti4  1  0.50097185  0.49879360  0.49906751  1
  Ti  Ti5  1  0.75079173  0.24953304  0.24914045  1
  Ti  Ti6  1  0.75035144  0.74977037  0.24995460  1
  Ti  Ti7  1  0.99885760  0.00153235  0.49871342  1
  Ti  Ti8  1  0.99828388  0.49986294  0.49874011  1
  Ti  Ti9  1  0.25112017  0.24926951  0.25030712  1
  Ti  Ti10  1  0.24999293  0.74909220  0.24891343  1
  Ti  Ti11  1  0.50084542  0.99983228  0.00136202  1
  Ti  Ti12  1  0.50048599  0.49860788  0.00085092  1
  Ti  Ti13  1  0.99954122  0.00111286  0.00124620  1
  Ti  Ti14  1  0.99998234  0.49976506  0.00075249  1
  W  W15  1  0.24828173  0.74933711  0.74911123  1
  N  N16  1  0.74992643  0.75032175  0.50039727  1
  N  N17  1  0.74994599  0.25061056  0.50046423  1
  N  N18  1  0.24957924  0.75024473  0.49704394  1
  N  N19  1  0.25030981  0.25009058  0.50042640  1
  N  N20  1  0.49920168  0.50013584  0.25033528  1
  N  N21  1  0.49948398  -0.00003134  0.25025330  1
  N  N22  1  0.74983143  0.75055877  1.00056610  1
  N  N23  1  0.74979558  0.25096933  -0.00042274  1
  N  N24  1  1.00000172  0.50067646  0.25015078  1
  N  N25  1  0.99938492  0.00015366  0.25043450  1
  N  N26  1  0.24965911  0.75058301  0.00174132  1
  N  N27  1  0.25007028  0.25039013  1.00051557  1
  N  N28  1  0.50243283  0.49709684  0.75028371  1
  N  N29  1  0.50244502  0.00248442  0.75042575  1
  N  N30  1  0.99693457  0.49690111  0.75006592  1
  N  N31  1  0.99695773  0.00266835  0.75033147  1
