# generated using pymatgen
data_Ti11CoN12
_symmetry_space_group_name_H-M   'P 1'
_cell_length_a   5.19980372
_cell_length_b   6.00380863
_cell_length_c   7.34951196
_cell_angle_alpha   90.00125813
_cell_angle_beta   90.11369069
_cell_angle_gamma   89.99728496
_symmetry_Int_Tables_number   1
_chemical_formula_structural   Ti11CoN12
_chemical_formula_sum   'Ti11 Co1 N12'
_cell_volume   229.44121637
_cell_formula_units_Z   1
loop_
 _symmetry_equiv_pos_site_id
 _symmetry_equiv_pos_as_xyz
  1  'x, y, z'
loop_
 _atom_site_type_symbol
 _atom_site_label
 _atom_site_symmetry_multiplicity
 _atom_site_fract_x
 _atom_site_fract_y
 _atom_site_fract_z
 _atom_site_occupancy
  Ti  Ti0  1  0.50377924  0.25236653  0.00565206  1
  Ti  Ti1  1  0.32996333  0.00001287  0.66916528  1
  Ti  Ti2  1  0.16660318  0.74610647  0.33341181  1
  Ti  Ti3  1  0.50376060  0.74748616  0.00572300  1
  Ti  Ti4  1  0.33838989  0.49992723  0.66487106  1
  Ti  Ti5  1  0.00326817  0.00011789  0.99778127  1
  Ti  Ti6  1  0.82951653  0.74742255  0.66114754  1
  Ti  Ti7  1  0.99483768  0.49982332  1.00163772  1
  Ti  Ti8  1  0.16671145  0.25377483  0.33333355  1
  Ti  Ti9  1  0.82968087  0.25227095  0.66110367  1
  Ti  Ti10  1  0.66735217  0.99997792  0.33291825  1
  Co  Co11  1  0.66184018  0.49923667  0.33464976  1
  N  N12  1  0.16699996  0.25277316  0.83314730  1
  N  N13  1  0.49718336  0.24610894  0.50164285  1
  N  N14  1  0.33384239  0.99975624  0.16836705  1
  N  N15  1  0.16719889  0.74778277  0.83307340  1
  N  N16  1  0.49706149  0.75426491  0.50164774  1
  N  N17  1  0.32601829  0.50010780  0.16288515  1
  N  N18  1  0.83729432  0.24592362  0.16452471  1
  N  N19  1  0.66668849  0.99997097  0.83359940  1
  N  N20  1  0.00002297  -0.00000551  0.49854129  1
  N  N21  1  0.83696779  0.75414837  0.16472849  1
  N  N22  1  0.66652861  0.49993110  0.83333774  1
  N  N23  1  0.00728962  0.49978763  0.50373448  1
