# generated using pymatgen
data_HfTaTiNbVC5
_symmetry_space_group_name_H-M   'P 1'
_cell_length_a   7.01465705
_cell_length_b   4.45385994
_cell_length_c   7.01313796
_cell_angle_alpha   89.99884589
_cell_angle_beta   90.01912803
_cell_angle_gamma   89.99601806
_symmetry_Int_Tables_number   1
_chemical_formula_structural   HfTaTiNbVC5
_chemical_formula_sum   'Hf2 Ta2 Ti2 Nb2 V2 C10'
_cell_volume   219.10654730
_cell_formula_units_Z   2
loop_
 _symmetry_equiv_pos_site_id
 _symmetry_equiv_pos_as_xyz
  1  'x, y, z'
loop_
 _atom_site_type_symbol
 _atom_site_label
 _atom_site_symmetry_multiplicity
 _atom_site_fract_x
 _atom_site_fract_y
 _atom_site_fract_z
 _atom_site_occupancy
  Hf  Hf0  1  0.50035748  0.50012855  0.49809939  1
  Hf  Hf1  1  0.79987046  0.00000968  0.60817364  1
  Ta  Ta2  1  0.19844494  0.00013325  0.39294449  1
  Ta  Ta3  1  0.89952907  0.50012952  0.28433485  1
  Ti  Ti4  1  0.30340312  0.50003546  0.09407179  1
  Ti  Ti5  1  0.60165433  1.00018827  0.19029366  1
  Nb  Nb6  1  0.39938431  1.00014799  0.81319562  1
  Nb  Nb7  1  0.09837637  0.50000046  0.71348081  1
  V  V8  1  0.70342831  0.49716402  0.90919938  1
  V  V9  1  0.99370503  0.99462383  0.99937459  1
  C  C10  1  0.70736425  0.00206158  0.91070943  1
  C  C11  1  0.49544613  0.00014790  0.49273434  1
  C  C12  1  0.59998281  0.50036025  0.18717870  1
  C  C13  1  0.90005980  1.00029751  0.28851921  1
  C  C14  1  0.99586470  0.50353976  -0.00107436  1
  C  C15  1  0.29374107  0.00033809  0.10062068  1
  C  C16  1  0.40952645  0.50033003  0.81053458  1
  C  C17  1  0.80246521  0.50008362  0.60575101  1
  C  C18  1  0.10358728  1.00013245  0.70787825  1
  C  C19  1  0.19431304  0.50009961  0.39434279  1
