# generated using pymatgen
data_HfTaTiNbVC5
_symmetry_space_group_name_H-M   'P 1'
_cell_length_a   7.01543859
_cell_length_b   4.45303462
_cell_length_c   7.01377250
_cell_angle_alpha   90.00228363
_cell_angle_beta   90.01463458
_cell_angle_gamma   90.00135656
_symmetry_Int_Tables_number   1
_chemical_formula_structural   HfTaTiNbVC5
_chemical_formula_sum   'Hf2 Ta2 Ti2 Nb2 V2 C10'
_cell_volume   219.11018161
_cell_formula_units_Z   2
loop_
 _symmetry_equiv_pos_site_id
 _symmetry_equiv_pos_as_xyz
  1  'x, y, z'
loop_
 _atom_site_type_symbol
 _atom_site_label
 _atom_site_symmetry_multiplicity
 _atom_site_fract_x
 _atom_site_fract_y
 _atom_site_fract_z
 _atom_site_occupancy
  Hf  Hf0  1  0.50025236  0.50010093  0.49808234  1
  Hf  Hf1  1  0.79992861  1.00035072  0.60825310  1
  Ta  Ta2  1  0.19830361  0.00006654  0.39297080  1
  Ta  Ta3  1  0.89937041  0.50002510  0.28436924  1
  Ti  Ti4  1  0.30321723  0.49979179  0.09412133  1
  Ti  Ti5  1  0.60150780  0.00024590  0.19033537  1
  Nb  Nb6  1  0.39947469  1.00017085  0.81325282  1
  Nb  Nb7  1  0.09846329  0.49987026  0.71356310  1
  V  V8  1  0.70323622  0.50414446  0.90927507  1
  V  V9  1  0.99376383  0.99407976  0.99953675  1
  C  C10  1  0.70734280  0.99851596  0.91072703  1
  C  C11  1  0.49543858  0.00006150  0.49279844  1
  C  C12  1  0.59983135  0.49966803  0.18720038  1
  C  C13  1  0.89986805  1.00031435  0.28851401  1
  C  C14  1  0.99582109  0.50280206  -0.00107609  1
  C  C15  1  0.29361732  0.00026203  0.10061133  1
  C  C16  1  0.40952996  0.50017854  0.81048540  1
  C  C17  1  0.80237231  0.50005106  0.60571291  1
  C  C18  1  0.10360901  1.00009410  0.70793967  1
  C  C19  1  0.19424076  0.50006507  0.39434118  1
