# generated using pymatgen
data_HfTaTiNbVC5
_symmetry_space_group_name_H-M   'P 1'
_cell_length_a   7.01399377
_cell_length_b   4.45389522
_cell_length_c   7.01299402
_cell_angle_alpha   89.99873020
_cell_angle_beta   90.02296249
_cell_angle_gamma   90.00072992
_symmetry_Int_Tables_number   1
_chemical_formula_structural   HfTaTiNbVC5
_chemical_formula_sum   'Hf2 Ta2 Ti2 Nb2 V2 C10'
_cell_volume   219.08306310
_cell_formula_units_Z   2
loop_
 _symmetry_equiv_pos_site_id
 _symmetry_equiv_pos_as_xyz
  1  'x, y, z'
loop_
 _atom_site_type_symbol
 _atom_site_label
 _atom_site_symmetry_multiplicity
 _atom_site_fract_x
 _atom_site_fract_y
 _atom_site_fract_z
 _atom_site_occupancy
  Hf  Hf0  1  0.50063516  0.50005531  0.49821944  1
  Hf  Hf1  1  0.79990901  -0.00008952  0.60816559  1
  Ta  Ta2  1  0.19871297  1.00009600  0.39307246  1
  Ta  Ta3  1  0.89973664  0.50005459  0.28425723  1
  Ti  Ti4  1  0.30342809  0.49997707  0.09419634  1
  Ti  Ti5  1  0.60170454  1.00008517  0.19034726  1
  Nb  Nb6  1  0.39934774  0.00007502  0.81333085  1
  Nb  Nb7  1  0.09833261  0.49991159  0.71344788  1
  V  V8  1  0.70311342  0.49620954  0.90923740  1
  V  V9  1  0.99357383  0.99477799  0.99916272  1
  C  C10  1  0.70724999  0.00243282  0.91084668  1
  C  C11  1  0.49551564  1.00007877  0.49276387  1
  C  C12  1  0.60012879  0.50031296  0.18717438  1
  C  C13  1  0.90027777  1.00015873  0.28851553  1
  C  C14  1  0.99567630  0.50346949  -0.00113183  1
  C  C15  1  0.29372414  1.00033207  0.10079664  1
  C  C16  1  0.40936679  0.50026160  0.81063258  1
  C  C17  1  0.80261007  0.50014023  0.60570778  1
  C  C18  1  0.10353660  1.00021569  0.70786729  1
  C  C19  1  0.19442435  0.50007808  0.39435894  1
