# generated using pymatgen
data_HfTaTiNbVC5
_symmetry_space_group_name_H-M   'P 1'
_cell_length_a   7.01401074
_cell_length_b   4.45385460
_cell_length_c   7.01273839
_cell_angle_alpha   89.99974886
_cell_angle_beta   90.01923316
_cell_angle_gamma   89.99991345
_symmetry_Int_Tables_number   1
_chemical_formula_structural   HfTaTiNbVC5
_chemical_formula_sum   'Hf2 Ta2 Ti2 Nb2 V2 C10'
_cell_volume   219.07361468
_cell_formula_units_Z   2
loop_
 _symmetry_equiv_pos_site_id
 _symmetry_equiv_pos_as_xyz
  1  'x, y, z'
loop_
 _atom_site_type_symbol
 _atom_site_label
 _atom_site_symmetry_multiplicity
 _atom_site_fract_x
 _atom_site_fract_y
 _atom_site_fract_z
 _atom_site_occupancy
  Hf  Hf0  1  0.50051670  0.50012249  0.49807836  1
  Hf  Hf1  1  0.79982041  1.00009600  0.60811575  1
  Ta  Ta2  1  0.19855339  0.00012355  0.39297596  1
  Ta  Ta3  1  0.89960011  0.50003874  0.28422775  1
  Ti  Ti4  1  0.30329896  0.49998841  0.09413319  1
  Ti  Ti5  1  0.60158046  0.00014293  0.19030376  1
  Nb  Nb6  1  0.39932395  1.00016039  0.81320304  1
  Nb  Nb7  1  0.09833539  0.49993965  0.71335034  1
  V  V8  1  0.70319628  0.49964455  0.90912788  1
  V  V9  1  0.99363297  -0.00487066  0.99914178  1
  C  C10  1  0.70715057  0.00085216  0.91074724  1
  C  C11  1  0.49542352  1.00009888  0.49267285  1
  C  C12  1  0.59998266  0.49999425  0.18707273  1
  C  C13  1  0.90013820  0.00025884  0.28845627  1
  C  C14  1  0.99570994  0.50297378  -0.00122025  1
  C  C15  1  0.29362243  0.00026526  0.10065917  1
  C  C16  1  0.40938874  0.50021497  0.81050278  1
  C  C17  1  0.80247800  0.50005426  0.60572884  1
  C  C18  1  0.10352963  0.00013930  0.70777941  1
  C  C19  1  0.19433188  0.50008670  0.39426956  1
