# generated using pymatgen
data_HfTaTiNbVC5
_symmetry_space_group_name_H-M   'P 1'
_cell_length_a   7.01503688
_cell_length_b   4.45330573
_cell_length_c   7.01358207
_cell_angle_alpha   89.99909795
_cell_angle_beta   90.01408185
_cell_angle_gamma   90.00139907
_symmetry_Int_Tables_number   1
_chemical_formula_structural   HfTaTiNbVC5
_chemical_formula_sum   'Hf2 Ta2 Ti2 Nb2 V2 C10'
_cell_volume   219.10502617
_cell_formula_units_Z   2
loop_
 _symmetry_equiv_pos_site_id
 _symmetry_equiv_pos_as_xyz
  1  'x, y, z'
loop_
 _atom_site_type_symbol
 _atom_site_label
 _atom_site_symmetry_multiplicity
 _atom_site_fract_x
 _atom_site_fract_y
 _atom_site_fract_z
 _atom_site_occupancy
  Hf  Hf0  1  0.50027646  0.49989883  0.49795972  1
  Hf  Hf1  1  0.79994879  -0.00006576  0.60810154  1
  Ta  Ta2  1  0.19835400  -0.00007767  0.39288887  1
  Ta  Ta3  1  0.89945624  0.49991993  0.28428860  1
  Ti  Ti4  1  0.30331310  0.50011141  0.09403527  1
  Ti  Ti5  1  0.60158525  -0.00013856  0.19024576  1
  Nb  Nb6  1  0.39951584  -0.00009671  0.81315100  1
  Nb  Nb7  1  0.09851796  0.50013109  0.71344627  1
  V  V8  1  0.70349081  0.50141720  0.90907889  1
  V  V9  1  0.99388343  0.00582405  0.99934405  1
  C  C10  1  0.70733073  0.99859068  0.91059562  1
  C  C11  1  0.49546099  -0.00010758  0.49271071  1
  C  C12  1  0.59992569  0.49992806  0.18707412  1
  C  C13  1  0.89990975  -0.00031216  0.28844742  1
  C  C14  1  0.99585879  0.49639980  -0.00115645  1
  C  C15  1  0.29369182  0.99970555  0.10051203  1
  C  C16  1  0.40962535  0.49969227  0.81041840  1
  C  C17  1  0.80242227  0.49995341  0.60567869  1
  C  C18  1  0.10364362  -0.00015801  0.70782890  1
  C  C19  1  0.19429712  0.49994423  0.39427362  1
