# generated using pymatgen
data_HfTaTiNbVC5
_symmetry_space_group_name_H-M   'P 1'
_cell_length_a   7.01371824
_cell_length_b   4.45411156
_cell_length_c   7.01257173
_cell_angle_alpha   89.99571978
_cell_angle_beta   90.02027427
_cell_angle_gamma   89.99802853
_symmetry_Int_Tables_number   1
_chemical_formula_structural   HfTaTiNbVC5
_chemical_formula_sum   'Hf2 Ta2 Ti2 Nb2 V2 C10'
_cell_volume   219.07190964
_cell_formula_units_Z   2
loop_
 _symmetry_equiv_pos_site_id
 _symmetry_equiv_pos_as_xyz
  1  'x, y, z'
loop_
 _atom_site_type_symbol
 _atom_site_label
 _atom_site_symmetry_multiplicity
 _atom_site_fract_x
 _atom_site_fract_y
 _atom_site_fract_z
 _atom_site_occupancy
  Hf  Hf0  1  0.50056838  0.49984395  0.49822416  1
  Hf  Hf1  1  0.79981462  0.99966823  0.60816395  1
  Ta  Ta2  1  0.19864438  0.99988144  0.39304186  1
  Ta  Ta3  1  0.89969275  0.49994344  0.28424507  1
  Ti  Ti4  1  0.30333726  0.50012253  0.09422971  1
  Ti  Ti5  1  0.60166611  -0.00025599  0.19034214  1
  Nb  Nb6  1  0.39923472  -0.00019705  0.81327365  1
  Nb  Nb7  1  0.09826032  0.50007847  0.71338834  1
  V  V8  1  0.70288959  0.49582435  0.90923229  1
  V  V9  1  0.99351479  0.00584245  0.99927311  1
  C  C10  1  0.70717452  1.00145768  0.91077787  1
  C  C11  1  0.49544428  0.99992160  0.49272534  1
  C  C12  1  0.60002608  0.50033832  0.18716291  1
  C  C13  1  0.90023577  0.99968444  0.28847165  1
  C  C14  1  0.99571943  0.49724029  -0.00117590  1
  C  C15  1  0.29369329  0.99964578  0.10078279  1
  C  C16  1  0.40931883  0.49991395  0.81059365  1
  C  C17  1  0.80250462  0.50001375  0.60569377  1
  C  C18  1  0.10346308  0.99997065  0.70784892  1
  C  C19  1  0.19433937  0.49991137  0.39433072  1
