# generated using pymatgen
data_HfTaTiNbVC5
_symmetry_space_group_name_H-M   'P 1'
_cell_length_a   7.01448319
_cell_length_b   4.45325687
_cell_length_c   7.01350698
_cell_angle_alpha   90.00061556
_cell_angle_beta   90.01676363
_cell_angle_gamma   89.99393696
_symmetry_Int_Tables_number   1
_chemical_formula_structural   HfTaTiNbVC5
_chemical_formula_sum   'Hf2 Ta2 Ti2 Nb2 V2 C10'
_cell_volume   219.08297926
_cell_formula_units_Z   2
loop_
 _symmetry_equiv_pos_site_id
 _symmetry_equiv_pos_as_xyz
  1  'x, y, z'
loop_
 _atom_site_type_symbol
 _atom_site_label
 _atom_site_symmetry_multiplicity
 _atom_site_fract_x
 _atom_site_fract_y
 _atom_site_fract_z
 _atom_site_occupancy
  Hf  Hf0  1  0.50038148  0.49988703  0.49802361  1
  Hf  Hf1  1  0.79989174  1.00000265  0.60812910  1
  Ta  Ta2  1  0.19846217  0.99987578  0.39291917  1
  Ta  Ta3  1  0.89956378  0.49995389  0.28419951  1
  Ti  Ti4  1  0.30330005  0.49989327  0.09407618  1
  Ti  Ti5  1  0.60163753  -0.00014567  0.19019173  1
  Nb  Nb6  1  0.39935711  0.99972122  0.81314723  1
  Nb  Nb7  1  0.09836772  0.50001636  0.71338697  1
  V  V8  1  0.70315124  0.50296591  0.90907400  1
  V  V9  1  0.99365321  0.00590136  0.99943146  1
  C  C10  1  0.70725822  0.99787438  0.91059846  1
  C  C11  1  0.49543501  -0.00014036  0.49265799  1
  C  C12  1  0.59996330  0.49977486  0.18711661  1
  C  C13  1  0.90003170  0.99978374  0.28846205  1
  C  C14  1  0.99580979  0.49638974  0.99882386  1
  C  C15  1  0.29373846  0.99964678  0.10061403  1
  C  C16  1  0.40942865  0.49954554  0.81047092  1
  C  C17  1  0.80243659  0.49985258  0.60562999  1
  C  C18  1  0.10359354  -0.00043039  0.70775052  1
  C  C19  1  0.19430535  0.49984645  0.39428507  1
