# generated using pymatgen
data_HfTaTiNbVC5
_symmetry_space_group_name_H-M   'P 1'
_cell_length_a   7.01391965
_cell_length_b   4.45400092
_cell_length_c   7.01287137
_cell_angle_alpha   90.00310819
_cell_angle_beta   90.01842369
_cell_angle_gamma   90.00535909
_symmetry_Int_Tables_number   1
_chemical_formula_structural   HfTaTiNbVC5
_chemical_formula_sum   'Hf2 Ta2 Ti2 Nb2 V2 C10'
_cell_volume   219.08212084
_cell_formula_units_Z   2
loop_
 _symmetry_equiv_pos_site_id
 _symmetry_equiv_pos_as_xyz
  1  'x, y, z'
loop_
 _atom_site_type_symbol
 _atom_site_label
 _atom_site_symmetry_multiplicity
 _atom_site_fract_x
 _atom_site_fract_y
 _atom_site_fract_z
 _atom_site_occupancy
  Hf  Hf0  1  0.50048783  0.49994183  0.49816916  1
  Hf  Hf1  1  0.79978954  1.00016411  0.60811403  1
  Ta  Ta2  1  0.19855591  -0.00005954  0.39306989  1
  Ta  Ta3  1  0.89958421  0.49984337  0.28425814  1
  Ti  Ti4  1  0.30333858  0.49983927  0.09423557  1
  Ti  Ti5  1  0.60162571  1.00003716  0.19033666  1
  Nb  Nb6  1  0.39929683  0.00006692  0.81326635  1
  Nb  Nb7  1  0.09827610  0.49978304  0.71346007  1
  V  V8  1  0.70300989  0.50372874  0.90922927  1
  V  V9  1  0.99359406  0.99440156  0.99925280  1
  C  C10  1  0.70722821  0.99846817  0.91079006  1
  C  C11  1  0.49541036  -0.00010861  0.49273032  1
  C  C12  1  0.59999195  0.49946887  0.18715037  1
  C  C13  1  0.90016404  1.00009529  0.28849864  1
  C  C14  1  0.99572430  0.50252976  -0.00115034  1
  C  C15  1  0.29366262  1.00017370  0.10074106  1
  C  C16  1  0.40931874  0.49997806  0.81059302  1
  C  C17  1  0.80248193  0.49986928  0.60567716  1
  C  C18  1  0.10344500  1.00011222  0.70782922  1
  C  C19  1  0.19429967  0.49995627  0.39434980  1
