# generated using pymatgen
data_HfTaTiNbVC5
_symmetry_space_group_name_H-M   'P 1'
_cell_length_a   7.01627559
_cell_length_b   4.45251231
_cell_length_c   7.01480211
_cell_angle_alpha   90.00054722
_cell_angle_beta   90.01030747
_cell_angle_gamma   90.00075666
_symmetry_Int_Tables_number   1
_chemical_formula_structural   HfTaTiNbVC5
_chemical_formula_sum   'Hf2 Ta2 Ti2 Nb2 V2 C10'
_cell_volume   219.14278923
_cell_formula_units_Z   2
loop_
 _symmetry_equiv_pos_site_id
 _symmetry_equiv_pos_as_xyz
  1  'x, y, z'
loop_
 _atom_site_type_symbol
 _atom_site_label
 _atom_site_symmetry_multiplicity
 _atom_site_fract_x
 _atom_site_fract_y
 _atom_site_fract_z
 _atom_site_occupancy
  Hf  Hf0  1  0.50001082  0.50011114  0.49798521  1
  Hf  Hf1  1  0.79997382  1.00021016  0.60813744  1
  Ta  Ta2  1  0.19807595  1.00015983  0.39285958  1
  Ta  Ta3  1  0.89921031  0.50005466  0.28441747  1
  Ti  Ti4  1  0.30305342  0.49994844  0.09400460  1
  Ti  Ti5  1  0.60134778  0.00022922  0.19029342  1
  Nb  Nb6  1  0.39959619  1.00015804  0.81322215  1
  Nb  Nb7  1  0.09860211  0.49994968  0.71354895  1
  V  V8  1  0.70368881  0.50171714  0.90915310  1
  V  V9  1  0.99400038  0.99430425  0.99944750  1
  C  C10  1  0.70739285  -0.00031454  0.91056931  1
  C  C11  1  0.49537781  0.00008369  0.49282988  1
  C  C12  1  0.59977032  0.49990189  0.18710744  1
  C  C13  1  0.89963168  1.00034129  0.28851456  1
  C  C14  1  0.99597523  0.50335980  -0.00107123  1
  C  C15  1  0.29360639  0.00028625  0.10048646  1
  C  C16  1  0.40972679  0.50008369  0.81042884  1
  C  C17  1  0.80223080  0.50009676  0.60579926  1
  C  C18  1  0.10369324  0.00006812  0.70792491  1
  C  C19  1  0.19415497  0.50009722  0.39436845  1
