# generated using pymatgen
data_HfTaTiNbVC5
_symmetry_space_group_name_H-M   'P 1'
_cell_length_a   7.01562351
_cell_length_b   4.45275776
_cell_length_c   7.01409389
_cell_angle_alpha   89.99680803
_cell_angle_beta   90.01344644
_cell_angle_gamma   89.99757358
_symmetry_Int_Tables_number   1
_chemical_formula_structural   HfTaTiNbVC5
_chemical_formula_sum   'Hf2 Ta2 Ti2 Nb2 V2 C10'
_cell_volume   219.11237498
_cell_formula_units_Z   2
loop_
 _symmetry_equiv_pos_site_id
 _symmetry_equiv_pos_as_xyz
  1  'x, y, z'
loop_
 _atom_site_type_symbol
 _atom_site_label
 _atom_site_symmetry_multiplicity
 _atom_site_fract_x
 _atom_site_fract_y
 _atom_site_fract_z
 _atom_site_occupancy
  Hf  Hf0  1  0.50024556  0.49996578  0.49786727  1
  Hf  Hf1  1  0.80004457  -0.00026738  0.60815902  1
  Ta  Ta2  1  0.19824345  1.00003666  0.39291062  1
  Ta  Ta3  1  0.89927617  0.50007370  0.28422260  1
  Ti  Ti4  1  0.30300858  0.50018400  0.09400194  1
  Ti  Ti5  1  0.60136288  0.99993101  0.19016539  1
  Nb  Nb6  1  0.39971026  -0.00004086  0.81316070  1
  Nb  Nb7  1  0.09865573  0.50004604  0.71347488  1
  V  V8  1  0.70326079  0.49561241  0.90903198  1
  V  V9  1  0.99425681  0.00169929  0.99928533  1
  C  C10  1  0.70735590  0.00201213  0.91063070  1
  C  C11  1  0.49548348  1.00000369  0.49267955  1
  C  C12  1  0.59976388  0.50041689  0.18705144  1
  C  C13  1  0.89976609  0.99991307  0.28842215  1
  C  C14  1  0.99584615  0.49969190  -0.00120159  1
  C  C15  1  0.29345836  0.99999885  0.10044866  1
  C  C16  1  0.40964323  0.49996505  0.81033152  1
  C  C17  1  0.80237834  0.50003847  0.60564383  1
  C  C18  1  0.10376197  -0.00001805  0.70785902  1
  C  C19  1  0.19420024  0.50002031  0.39426537  1
