# generated using pymatgen
data_HfTaTiNbVC5
_symmetry_space_group_name_H-M   'P 1'
_cell_length_a   7.01584216
_cell_length_b   4.45166317
_cell_length_c   7.01441954
_cell_angle_alpha   90.00046703
_cell_angle_beta   90.01777524
_cell_angle_gamma   89.99966141
_symmetry_Int_Tables_number   1
_chemical_formula_structural   HfTaTiNbVC5
_chemical_formula_sum   'Hf2 Ta2 Ti2 Nb2 V2 C10'
_cell_volume   219.07550588
_cell_formula_units_Z   2
loop_
 _symmetry_equiv_pos_site_id
 _symmetry_equiv_pos_as_xyz
  1  'x, y, z'
loop_
 _atom_site_type_symbol
 _atom_site_label
 _atom_site_symmetry_multiplicity
 _atom_site_fract_x
 _atom_site_fract_y
 _atom_site_fract_z
 _atom_site_occupancy
  Hf  Hf0  1  0.50088076  0.50007986  0.49819532  1
  Hf  Hf1  1  0.79955690  0.00013831  0.60808997  1
  Ta  Ta2  1  0.19892934  0.00009721  0.39307192  1
  Ta  Ta3  1  0.89963603  0.50002429  0.28425302  1
  Ti  Ti4  1  0.30346816  0.50014997  0.09425136  1
  Ti  Ti5  1  0.60179596  0.00007825  0.19038589  1
  Nb  Nb6  1  0.39929878  0.00009904  0.81305263  1
  Nb  Nb7  1  0.09820746  0.50021336  0.71332369  1
  V  V8  1  0.70301411  0.50288213  0.90917680  1
  V  V9  1  0.99342077  0.00451976  0.99909960  1
  C  C10  1  0.70723563  0.99814583  0.91110481  1
  C  C11  1  0.49544062  0.00007050  0.49250498  1
  C  C12  1  0.60010022  0.49979985  0.18698305  1
  C  C13  1  0.90051919  0.99978779  0.28874533  1
  C  C14  1  0.99543857  0.49716217  -0.00119457  1
  C  C15  1  0.29357702  -0.00002114  0.10079976  1
  C  C16  1  0.40920865  0.49993065  0.81070187  1
  C  C17  1  0.80265365  0.50001790  0.60582978  1
  C  C18  1  0.10331135  -0.00003174  0.70777504  1
  C  C19  1  0.19442877  0.50012709  0.39436324  1
