# generated using pymatgen
data_HfTaTiNbVC5
_symmetry_space_group_name_H-M   'P 1'
_cell_length_a   7.01586276
_cell_length_b   4.45277279
_cell_length_c   7.01434768
_cell_angle_alpha   89.99668464
_cell_angle_beta   90.01083171
_cell_angle_gamma   90.00126950
_symmetry_Int_Tables_number   1
_chemical_formula_structural   HfTaTiNbVC5
_chemical_formula_sum   'Hf2 Ta2 Ti2 Nb2 V2 C10'
_cell_volume   219.12851733
_cell_formula_units_Z   2
loop_
 _symmetry_equiv_pos_site_id
 _symmetry_equiv_pos_as_xyz
  1  'x, y, z'
loop_
 _atom_site_type_symbol
 _atom_site_label
 _atom_site_symmetry_multiplicity
 _atom_site_fract_x
 _atom_site_fract_y
 _atom_site_fract_z
 _atom_site_occupancy
  Hf  Hf0  1  0.50012173  0.50012388  0.49791706  1
  Hf  Hf1  1  0.80007706  0.99998214  0.60814855  1
  Ta  Ta2  1  0.19815178  1.00018186  0.39289927  1
  Ta  Ta3  1  0.89927062  0.50014123  0.28433754  1
  Ti  Ti4  1  0.30327662  0.50003058  0.09399331  1
  Ti  Ti5  1  0.60142465  0.00011051  0.19019900  1
  Nb  Nb6  1  0.39974534  0.00010712  0.81314536  1
  Nb  Nb7  1  0.09867726  0.50004675  0.71355348  1
  V  V8  1  0.70377723  0.49560394  0.90900476  1
  V  V9  1  0.99422875  0.99498655  0.99942649  1
  C  C10  1  0.70762804  0.00291291  0.91060840  1
  C  C11  1  0.49550028  0.00017269  0.49272314  1
  C  C12  1  0.59990363  0.50050426  0.18701001  1
  C  C13  1  0.89972829  0.00038309  0.28850593  1
  C  C14  1  0.99603168  0.50375004  -0.00100434  1
  C  C15  1  0.29377985  0.00036120  0.10044188  1
  C  C16  1  0.40985301  0.50023688  0.81041755  1
  C  C17  1  0.80238659  0.50028825  0.60580437  1
  C  C18  1  0.10384882  1.00045800  0.70791277  1
  C  C19  1  0.19423254  0.50018654  0.39434945  1
