# generated using pymatgen
data_HfTaTiNbVC5
_symmetry_space_group_name_H-M   'P 1'
_cell_length_a   7.01725919
_cell_length_b   4.45021547
_cell_length_c   7.01483242
_cell_angle_alpha   89.99976836
_cell_angle_beta   90.01515916
_cell_angle_gamma   89.99569187
_symmetry_Int_Tables_number   1
_chemical_formula_structural   HfTaTiNbVC5
_chemical_formula_sum   'Hf2 Ta2 Ti2 Nb2 V2 C10'
_cell_volume   219.06139091
_cell_formula_units_Z   2
loop_
 _symmetry_equiv_pos_site_id
 _symmetry_equiv_pos_as_xyz
  1  'x, y, z'
loop_
 _atom_site_type_symbol
 _atom_site_label
 _atom_site_symmetry_multiplicity
 _atom_site_fract_x
 _atom_site_fract_y
 _atom_site_fract_z
 _atom_site_occupancy
  Hf  Hf0  1  0.50070147  0.50017064  0.49822275  1
  Hf  Hf1  1  0.79949513  1.00003213  0.60807792  1
  Ta  Ta2  1  0.19882784  0.00011793  0.39300861  1
  Ta  Ta3  1  0.89956448  0.50020917  0.28433705  1
  Ti  Ti4  1  0.30343468  0.50026523  0.09418795  1
  Ti  Ti5  1  0.60164722  1.00002008  0.19040875  1
  Nb  Nb6  1  0.39930789  1.00005430  0.81302744  1
  Nb  Nb7  1  0.09818736  0.50029480  0.71335094  1
  V  V8  1  0.70313066  0.49744509  0.90925433  1
  V  V9  1  0.99354927  0.00463623  0.99908437  1
  C  C10  1  0.70721715  0.00128036  0.91105879  1
  C  C11  1  0.49538337  0.00016927  0.49256006  1
  C  C12  1  0.60008357  0.50048096  0.18693821  1
  C  C13  1  0.90043778  -0.00006941  0.28875817  1
  C  C14  1  0.99552646  0.49779278  -0.00117152  1
  C  C15  1  0.29370795  -0.00012817  0.10077057  1
  C  C16  1  0.40931098  0.50005088  0.81067621  1
  C  C17  1  0.80252900  0.50016848  0.60591855  1
  C  C18  1  0.10324011  0.00000018  0.70781633  1
  C  C19  1  0.19442209  0.50008876  0.39431984  1
