# generated using pymatgen
data_HfTaTiNbVC5
_symmetry_space_group_name_H-M   'P 1'
_cell_length_a   7.01772510
_cell_length_b   4.44996922
_cell_length_c   7.01519223
_cell_angle_alpha   90.00122227
_cell_angle_beta   90.01577051
_cell_angle_gamma   90.00136031
_symmetry_Int_Tables_number   1
_chemical_formula_structural   HfTaTiNbVC5
_chemical_formula_sum   'Hf2 Ta2 Ti2 Nb2 V2 C10'
_cell_volume   219.07504959
_cell_formula_units_Z   2
loop_
 _symmetry_equiv_pos_site_id
 _symmetry_equiv_pos_as_xyz
  1  'x, y, z'
loop_
 _atom_site_type_symbol
 _atom_site_label
 _atom_site_symmetry_multiplicity
 _atom_site_fract_x
 _atom_site_fract_y
 _atom_site_fract_z
 _atom_site_occupancy
  Hf  Hf0  1  0.50059596  0.49997307  0.49822573  1
  Hf  Hf1  1  0.79948855  1.00010687  0.60813264  1
  Ta  Ta2  1  0.19867076  -0.00000832  0.39297445  1
  Ta  Ta3  1  0.89944437  0.49994665  0.28427226  1
  Ti  Ti4  1  0.30330214  0.50008088  0.09418192  1
  Ti  Ti5  1  0.60152580  -0.00008244  0.19033638  1
  Nb  Nb6  1  0.39918730  -0.00007387  0.81301859  1
  Nb  Nb7  1  0.09813112  0.50008694  0.71339303  1
  V  V8  1  0.70295478  0.50323786  0.90919615  1
  V  V9  1  0.99332734  0.00552790  0.99925791  1
  C  C10  1  0.70710368  -0.00231281  0.91103730  1
  C  C11  1  0.49527062  0.99992103  0.49257184  1
  C  C12  1  0.59993751  0.49967199  0.18696408  1
  C  C13  1  0.90028590  -0.00020802  0.28873769  1
  C  C14  1  0.99538188  0.49639210  -0.00117084  1
  C  C15  1  0.29362585  0.99961895  0.10075666  1
  C  C16  1  0.40913272  0.49967478  0.81065597  1
  C  C17  1  0.80243289  0.49991389  0.60583263  1
  C  C18  1  0.10320289  -0.00020421  0.70779323  1
  C  C19  1  0.19427348  0.49992167  0.39434040  1
