# generated using pymatgen
data_HfTaTiNbVC5
_symmetry_space_group_name_H-M   'P 1'
_cell_length_a   7.01703290
_cell_length_b   4.45075186
_cell_length_c   7.01475474
_cell_angle_alpha   90.00132741
_cell_angle_beta   90.01362612
_cell_angle_gamma   90.00346596
_symmetry_Int_Tables_number   1
_chemical_formula_structural   HfTaTiNbVC5
_chemical_formula_sum   'Hf2 Ta2 Ti2 Nb2 V2 C10'
_cell_volume   219.07830541
_cell_formula_units_Z   2
loop_
 _symmetry_equiv_pos_site_id
 _symmetry_equiv_pos_as_xyz
  1  'x, y, z'
loop_
 _atom_site_type_symbol
 _atom_site_label
 _atom_site_symmetry_multiplicity
 _atom_site_fract_x
 _atom_site_fract_y
 _atom_site_fract_z
 _atom_site_occupancy
  Hf  Hf0  1  0.50080095  0.49999503  0.49807287  1
  Hf  Hf1  1  0.79960109  1.00010847  0.60798164  1
  Ta  Ta2  1  0.19885964  0.99997563  0.39292860  1
  Ta  Ta3  1  0.89953249  0.49998883  0.28415894  1
  Ti  Ti4  1  0.30337983  0.50013361  0.09412021  1
  Ti  Ti5  1  0.60164538  -0.00006037  0.19025172  1
  Nb  Nb6  1  0.39942515  -0.00002252  0.81293302  1
  Nb  Nb7  1  0.09833856  0.50007063  0.71318630  1
  V  V8  1  0.70309663  0.50225549  0.90899907  1
  V  V9  1  0.99382678  1.00141290  0.99883852  1
  C  C10  1  0.70719282  -0.00127005  0.91099099  1
  C  C11  1  0.49538062  -0.00002519  0.49244830  1
  C  C12  1  0.60004614  0.49965255  0.18680788  1
  C  C13  1  0.90050053  -0.00004498  0.28859652  1
  C  C14  1  0.99546805  0.49890179  0.99870903  1
  C  C15  1  0.29353978  -0.00011126  0.10065266  1
  C  C16  1  0.40927552  0.49982895  0.81057081  1
  C  C17  1  0.80262294  0.49999522  0.60579274  1
  C  C18  1  0.10330863  1.00009393  0.70769904  1
  C  C19  1  0.19439670  0.49995785  0.39424495  1
