# generated using pymatgen
data_HfTaTiNbVC5
_symmetry_space_group_name_H-M   'P 1'
_cell_length_a   7.01749802
_cell_length_b   4.45010965
_cell_length_c   7.01472352
_cell_angle_alpha   90.00114645
_cell_angle_beta   90.01477475
_cell_angle_gamma   89.99840371
_symmetry_Int_Tables_number   1
_chemical_formula_structural   HfTaTiNbVC5
_chemical_formula_sum   'Hf2 Ta2 Ti2 Nb2 V2 C10'
_cell_volume   219.06023775
_cell_formula_units_Z   2
loop_
 _symmetry_equiv_pos_site_id
 _symmetry_equiv_pos_as_xyz
  1  'x, y, z'
loop_
 _atom_site_type_symbol
 _atom_site_label
 _atom_site_symmetry_multiplicity
 _atom_site_fract_x
 _atom_site_fract_y
 _atom_site_fract_z
 _atom_site_occupancy
  Hf  Hf0  1  0.50075565  0.49994105  0.49824868  1
  Hf  Hf1  1  0.79961584  0.99990294  0.60818492  1
  Ta  Ta2  1  0.19881541  0.99990136  0.39307969  1
  Ta  Ta3  1  0.89957060  0.49993798  0.28442334  1
  Ti  Ti4  1  0.30342922  0.50006658  0.09424355  1
  Ti  Ti5  1  0.60165355  -0.00011905  0.19046662  1
  Nb  Nb6  1  0.39945935  0.99992316  0.81309949  1
  Nb  Nb7  1  0.09834618  0.50005759  0.71344867  1
  V  V8  1  0.70335212  0.50008408  0.90925999  1
  V  V9  1  0.99366253  0.00400761  0.99918264  1
  C  C10  1  0.70725362  -0.00064405  0.91114615  1
  C  C11  1  0.49543565  -0.00001913  0.49261918  1
  C  C12  1  0.60007387  0.50002733  0.18697558  1
  C  C13  1  0.90044601  -0.00027119  0.28886169  1
  C  C14  1  0.99560210  0.49739351  -0.00107196  1
  C  C15  1  0.29372457  0.99981710  0.10079853  1
  C  C16  1  0.40940744  0.49989529  0.81069775  1
  C  C17  1  0.80255796  0.49993505  0.60602141  1
  C  C18  1  0.10336465  -0.00011197  0.70788158  1
  C  C19  1  0.19442905  0.49995562  0.39440580  1
