# generated using pymatgen
data_HfTaTiNbVC5
_symmetry_space_group_name_H-M   'P 1'
_cell_length_a   7.01691554
_cell_length_b   4.45085832
_cell_length_c   7.01473341
_cell_angle_alpha   89.99925209
_cell_angle_beta   90.01013305
_cell_angle_gamma   89.99972580
_symmetry_Int_Tables_number   1
_chemical_formula_structural   HfTaTiNbVC5
_chemical_formula_sum   'Hf2 Ta2 Ti2 Nb2 V2 C10'
_cell_volume   219.07921843
_cell_formula_units_Z   2
loop_
 _symmetry_equiv_pos_site_id
 _symmetry_equiv_pos_as_xyz
  1  'x, y, z'
loop_
 _atom_site_type_symbol
 _atom_site_label
 _atom_site_symmetry_multiplicity
 _atom_site_fract_x
 _atom_site_fract_y
 _atom_site_fract_z
 _atom_site_occupancy
  Hf  Hf0  1  0.50069373  0.49988056  0.49822065  1
  Hf  Hf1  1  0.79941157  -0.00028503  0.60801953  1
  Ta  Ta2  1  0.19880884  0.99989603  0.39294382  1
  Ta  Ta3  1  0.89953789  0.49990729  0.28429199  1
  Ti  Ti4  1  0.30340062  0.50009510  0.09416428  1
  Ti  Ti5  1  0.60171646  0.99969119  0.19036655  1
  Nb  Nb6  1  0.39916716  0.99975442  0.81295208  1
  Nb  Nb7  1  0.09808001  0.50010199  0.71322101  1
  V  V8  1  0.70297769  0.49694466  0.90920397  1
  V  V9  1  0.99332571  0.00601337  0.99917067  1
  C  C10  1  0.70718166  0.00098518  0.91102344  1
  C  C11  1  0.49527930  -0.00011099  0.49250995  1
  C  C12  1  0.60000256  0.50025616  0.18695958  1
  C  C13  1  0.90041072  0.99962127  0.28876688  1
  C  C14  1  0.99544967  0.49683597  -0.00122244  1
  C  C15  1  0.29358754  -0.00039953  0.10074100  1
  C  C16  1  0.40923337  0.49984713  0.81069498  1
  C  C17  1  0.80248814  0.49993438  0.60587955  1
  C  C18  1  0.10322294  0.99989194  0.70769513  1
  C  C19  1  0.19437378  0.49981014  0.39432673  1
