# generated using pymatgen
data_HfTaTiNbVC5
_symmetry_space_group_name_H-M   'P 1'
_cell_length_a   7.01654066
_cell_length_b   4.45103515
_cell_length_c   7.01462990
_cell_angle_alpha   90.00105903
_cell_angle_beta   90.01679320
_cell_angle_gamma   90.00505288
_symmetry_Int_Tables_number   1
_chemical_formula_structural   HfTaTiNbVC5
_chemical_formula_sum   'Hf2 Ta2 Ti2 Nb2 V2 C10'
_cell_volume   219.07297774
_cell_formula_units_Z   2
loop_
 _symmetry_equiv_pos_site_id
 _symmetry_equiv_pos_as_xyz
  1  'x, y, z'
loop_
 _atom_site_type_symbol
 _atom_site_label
 _atom_site_symmetry_multiplicity
 _atom_site_fract_x
 _atom_site_fract_y
 _atom_site_fract_z
 _atom_site_occupancy
  Hf  Hf0  1  0.50081838  0.50003874  0.49816794  1
  Hf  Hf1  1  0.79952533  0.00023587  0.60799012  1
  Ta  Ta2  1  0.19891779  1.00011897  0.39293074  1
  Ta  Ta3  1  0.89962472  0.50001424  0.28422337  1
  Ti  Ti4  1  0.30355296  0.49989930  0.09413237  1
  Ti  Ti5  1  0.60176653  0.00018132  0.19033944  1
  Nb  Nb6  1  0.39932412  0.00012870  0.81291020  1
  Nb  Nb7  1  0.09818771  0.49987896  0.71324465  1
  V  V8  1  0.70305444  0.50392975  0.90920407  1
  V  V9  1  0.99354051  0.99531896  0.99898671  1
  C  C10  1  0.70731739  -0.00165796  0.91105184  1
  C  C11  1  0.49541427  -0.00004074  0.49245940  1
  C  C12  1  0.60013370  0.49959301  0.18689227  1
  C  C13  1  0.90051582  0.00032840  0.28868010  1
  C  C14  1  0.99557417  0.50223396  -0.00124575  1
  C  C15  1  0.29375840  1.00019129  0.10073317  1
  C  C16  1  0.40933060  0.50001466  0.81063297  1
  C  C17  1  0.80264734  0.49994253  0.60582404  1
  C  C18  1  0.10328688  1.00003241  0.70772185  1
  C  C19  1  0.19446490  0.50002411  0.39424793  1
