# generated using pymatgen
data_HfTaTiNbVC5
_symmetry_space_group_name_H-M   'P 1'
_cell_length_a   7.01694685
_cell_length_b   4.45046330
_cell_length_c   7.01462390
_cell_angle_alpha   89.99935375
_cell_angle_beta   90.01784288
_cell_angle_gamma   90.00289821
_symmetry_Int_Tables_number   1
_chemical_formula_structural   HfTaTiNbVC5
_chemical_formula_sum   'Hf2 Ta2 Ti2 Nb2 V2 C10'
_cell_volume   219.05732496
_cell_formula_units_Z   2
loop_
 _symmetry_equiv_pos_site_id
 _symmetry_equiv_pos_as_xyz
  1  'x, y, z'
loop_
 _atom_site_type_symbol
 _atom_site_label
 _atom_site_symmetry_multiplicity
 _atom_site_fract_x
 _atom_site_fract_y
 _atom_site_fract_z
 _atom_site_occupancy
  Hf  Hf0  1  0.50072420  0.50012608  0.49813831  1
  Hf  Hf1  1  0.79949490  0.00016966  0.60805746  1
  Ta  Ta2  1  0.19879371  1.00013773  0.39297716  1
  Ta  Ta3  1  0.89951548  0.50011528  0.28428049  1
  Ti  Ti4  1  0.30340270  0.49991618  0.09414296  1
  Ti  Ti5  1  0.60159352  0.00018921  0.19036049  1
  Nb  Nb6  1  0.39930573  1.00011613  0.81295860  1
  Nb  Nb7  1  0.09821789  0.49991446  0.71329306  1
  V  V8  1  0.70326094  0.50059335  0.90920391  1
  V  V9  1  0.99350497  -0.00395121  0.99905980  1
  C  C10  1  0.70715899  0.00032291  0.91106765  1
  C  C11  1  0.49538024  1.00007947  0.49246236  1
  C  C12  1  0.60001735  0.49999499  0.18684417  1
  C  C13  1  0.90040888  1.00031683  0.28870827  1
  C  C14  1  0.99546746  0.50258874  -0.00121781  1
  C  C15  1  0.29366577  0.00028140  0.10071971  1
  C  C16  1  0.40930167  0.50013289  0.81061283  1
  C  C17  1  0.80252314  0.50009549  0.60592029  1
  C  C18  1  0.10326495  0.00022375  0.70776703  1
  C  C19  1  0.19435797  0.50012318  0.39427220  1
