# generated using pymatgen
data_HfTaTiNbWC5
_symmetry_space_group_name_H-M   'P 1'
_cell_length_a   7.08234883
_cell_length_b   4.47089855
_cell_length_c   7.06151922
_cell_angle_alpha   90.00016360
_cell_angle_beta   89.96775929
_cell_angle_gamma   89.99865084
_symmetry_Int_Tables_number   1
_chemical_formula_structural   HfTaTiNbWC5
_chemical_formula_sum   'Hf2 Ta2 Ti2 Nb2 W2 C10'
_cell_volume   223.59917936
_cell_formula_units_Z   2
loop_
 _symmetry_equiv_pos_site_id
 _symmetry_equiv_pos_as_xyz
  1  'x, y, z'
loop_
 _atom_site_type_symbol
 _atom_site_label
 _atom_site_symmetry_multiplicity
 _atom_site_fract_x
 _atom_site_fract_y
 _atom_site_fract_z
 _atom_site_occupancy
  Hf  Hf0  1  0.49861384  0.49994536  0.49594693  1
  Hf  Hf1  1  0.79607647  -0.00010312  0.60640166  1
  Ta  Ta2  1  0.20034224  -0.00007218  0.39352965  1
  Ta  Ta3  1  0.90418974  0.50009245  0.28704400  1
  Ti  Ti4  1  0.30716813  0.49997842  0.09687934  1
  Ti  Ti5  1  0.60378575  0.00028407  0.19102183  1
  Nb  Nb6  1  0.39191509  0.00025854  0.80614348  1
  Nb  Nb7  1  0.09413745  0.50015687  0.71122837  1
  W  W8  1  0.68612152  0.50261974  0.91027873  1
  W  W9  1  0.01333373  1.00349149  0.00714336  1
  C  C10  1  0.70475524  0.99764186  0.91049094  1
  C  C11  1  0.49487261  -0.00013394  0.49210650  1
  C  C12  1  0.60229246  0.49940924  0.19159750  1
  C  C13  1  0.89986534  0.99979947  0.28967171  1
  C  C14  1  1.00094247  0.49826648  0.00027329  1
  C  C15  1  0.30020571  0.99965922  0.10201803  1
  C  C16  1  0.40320133  0.49972730  0.80837609  1
  C  C17  1  0.80215411  0.49965786  0.60330652  1
  C  C18  1  0.10141415  0.99955820  0.70335125  1
  C  C19  1  0.19520197  0.49992609  0.39264335  1
