# generated using pymatgen
data_HfTaTiNbVC5
_symmetry_space_group_name_H-M   'P 1'
_cell_length_a   7.01800366
_cell_length_b   4.44980099
_cell_length_c   7.01529540
_cell_angle_alpha   89.99799928
_cell_angle_beta   90.01204991
_cell_angle_gamma   89.99815613
_symmetry_Int_Tables_number   1
_chemical_formula_structural   HfTaTiNbVC5
_chemical_formula_sum   'Hf2 Ta2 Ti2 Nb2 V2 C10'
_cell_volume   219.07868803
_cell_formula_units_Z   2
loop_
 _symmetry_equiv_pos_site_id
 _symmetry_equiv_pos_as_xyz
  1  'x, y, z'
loop_
 _atom_site_type_symbol
 _atom_site_label
 _atom_site_symmetry_multiplicity
 _atom_site_fract_x
 _atom_site_fract_y
 _atom_site_fract_z
 _atom_site_occupancy
  Hf  Hf0  1  0.50065531  0.49994291  0.49815235  1
  Hf  Hf1  1  0.79959794  0.99981221  0.60807841  1
  Ta  Ta2  1  0.19879474  0.99988209  0.39291931  1
  Ta  Ta3  1  0.89957136  0.49998928  0.28434660  1
  Ti  Ti4  1  0.30345548  0.50004840  0.09408392  1
  Ti  Ti5  1  0.60165566  -0.00020530  0.19032954  1
  Nb  Nb6  1  0.39933677  0.99977886  0.81294551  1
  Nb  Nb7  1  0.09826073  0.50009240  0.71336011  1
  V  V8  1  0.70320328  0.49777399  0.90927258  1
  V  V9  1  0.99344526  0.00628868  0.99940854  1
  C  C10  1  0.70720702  1.00061702  0.91096374  1
  C  C11  1  0.49539883  -0.00000869  0.49255597  1
  C  C12  1  0.60003698  0.50036099  0.18692171  1
  C  C13  1  0.90037819  0.99975430  0.28874541  1
  C  C14  1  0.99557712  0.49666309  -0.00121538  1
  C  C15  1  0.29380649  -0.00031048  0.10068830  1
  C  C16  1  0.40941767  0.49987004  0.81060487  1
  C  C17  1  0.80248204  0.49997939  0.60588338  1
  C  C18  1  0.10337453  -0.00012785  0.70766699  1
  C  C19  1  0.19437395  0.49992513  0.39428394  1
