# generated using pymatgen
data_HfTaTiNbWC5
_symmetry_space_group_name_H-M   'P 1'
_cell_length_a   7.08242356
_cell_length_b   4.47113827
_cell_length_c   7.06205885
_cell_angle_alpha   89.99550497
_cell_angle_beta   89.96844132
_cell_angle_gamma   89.99283455
_symmetry_Int_Tables_number   1
_chemical_formula_structural   HfTaTiNbWC5
_chemical_formula_sum   'Hf2 Ta2 Ti2 Nb2 W2 C10'
_cell_volume   223.63061486
_cell_formula_units_Z   2
loop_
 _symmetry_equiv_pos_site_id
 _symmetry_equiv_pos_as_xyz
  1  'x, y, z'
loop_
 _atom_site_type_symbol
 _atom_site_label
 _atom_site_symmetry_multiplicity
 _atom_site_fract_x
 _atom_site_fract_y
 _atom_site_fract_z
 _atom_site_occupancy
  Hf  Hf0  1  0.49841432  0.49986485  0.49603545  1
  Hf  Hf1  1  0.79583007  -0.00029886  0.60628694  1
  Ta  Ta2  1  0.20019308  -0.00013098  0.39337967  1
  Ta  Ta3  1  0.90391607  0.50021819  0.28721020  1
  Ti  Ti4  1  0.30741200  0.49985793  0.09699052  1
  Ti  Ti5  1  0.60369261  -0.00055879  0.19130348  1
  Nb  Nb6  1  0.39188570  0.99950338  0.80637023  1
  Nb  Nb7  1  0.09409181  0.50026113  0.71119733  1
  W  W8  1  0.68613680  0.49595492  0.91034139  1
  W  W9  1  0.01299081  0.01074503  0.00680268  1
  C  C10  1  0.70478069  1.00051702  0.91064079  1
  C  C11  1  0.49465214  -0.00003264  0.49216975  1
  C  C12  1  0.60211516  0.50053022  0.19155823  1
  C  C13  1  0.89974835  -0.00085464  0.28976020  1
  C  C14  1  1.00087280  0.49714647  0.00046601  1
  C  C15  1  0.29992491  0.99961445  0.10207192  1
  C  C16  1  0.40327775  0.50004908  0.80853572  1
  C  C17  1  0.80201580  0.50000102  0.60325633  1
  C  C18  1  0.10145649  0.99980094  0.70337583  1
  C  C19  1  0.19488886  0.49994752  0.39269932  1
