# generated using pymatgen
data_HfTaTiNbWC5
_symmetry_space_group_name_H-M   'P 1'
_cell_length_a   7.08252892
_cell_length_b   4.47145773
_cell_length_c   7.06209958
_cell_angle_alpha   89.99548018
_cell_angle_beta   89.97432208
_cell_angle_gamma   89.99166184
_symmetry_Int_Tables_number   1
_chemical_formula_structural   HfTaTiNbWC5
_chemical_formula_sum   'Hf2 Ta2 Ti2 Nb2 W2 C10'
_cell_volume   223.65122133
_cell_formula_units_Z   2
loop_
 _symmetry_equiv_pos_site_id
 _symmetry_equiv_pos_as_xyz
  1  'x, y, z'
loop_
 _atom_site_type_symbol
 _atom_site_label
 _atom_site_symmetry_multiplicity
 _atom_site_fract_x
 _atom_site_fract_y
 _atom_site_fract_z
 _atom_site_occupancy
  Hf  Hf0  1  0.49849219  0.50004402  0.49608572  1
  Hf  Hf1  1  0.79616338  0.99952933  0.60647913  1
  Ta  Ta2  1  0.20022314  0.00022230  0.39352956  1
  Ta  Ta3  1  0.90405839  0.50003187  0.28715806  1
  Ti  Ti4  1  0.30686089  0.50030596  0.09675810  1
  Ti  Ti5  1  0.60338576  -0.00095050  0.19116773  1
  Nb  Nb6  1  0.39187908  -0.00028180  0.80622910  1
  Nb  Nb7  1  0.09423193  0.49995817  0.71133724  1
  W  W8  1  0.68661291  0.49037586  0.91052005  1
  W  W9  1  0.01286455  0.99922986  0.00727353  1
  C  C10  1  0.70456710  0.00452696  0.91046973  1
  C  C11  1  0.49475392  0.00026924  0.49219124  1
  C  C12  1  0.60201887  0.50139832  0.19165943  1
  C  C13  1  0.89974481  0.00015798  0.28984089  1
  C  C14  1  1.00087283  0.50198511  0.00035460  1
  C  C15  1  0.29988865  0.00082383  0.10195244  1
  C  C16  1  0.40317303  0.50092898  0.80846324  1
  C  C17  1  0.80214293  0.50055933  0.60321267  1
  C  C18  1  0.10135919  1.00065759  0.70347881  1
  C  C19  1  0.19507736  0.50035172  0.39275272  1
