# generated using pymatgen
data_HfTaTiNbWC5
_symmetry_space_group_name_H-M   'P 1'
_cell_length_a   7.08178966
_cell_length_b   4.47122731
_cell_length_c   7.06171294
_cell_angle_alpha   90.00104939
_cell_angle_beta   89.97185104
_cell_angle_gamma   90.00140693
_symmetry_Int_Tables_number   1
_chemical_formula_structural   HfTaTiNbWC5
_chemical_formula_sum   'Hf2 Ta2 Ti2 Nb2 W2 C10'
_cell_volume   223.60410883
_cell_formula_units_Z   2
loop_
 _symmetry_equiv_pos_site_id
 _symmetry_equiv_pos_as_xyz
  1  'x, y, z'
loop_
 _atom_site_type_symbol
 _atom_site_label
 _atom_site_symmetry_multiplicity
 _atom_site_fract_x
 _atom_site_fract_y
 _atom_site_fract_z
 _atom_site_occupancy
  Hf  Hf0  1  0.49861573  0.49992159  0.49613681  1
  Hf  Hf1  1  0.79615491  -0.00012317  0.60651012  1
  Ta  Ta2  1  0.20035059  -0.00021072  0.39357499  1
  Ta  Ta3  1  0.90416302  0.50000092  0.28715029  1
  Ti  Ti4  1  0.30729858  0.49993095  0.09696581  1
  Ti  Ti5  1  0.60374998  1.00019559  0.19120060  1
  Nb  Nb6  1  0.39197740  0.00026865  0.80623981  1
  Nb  Nb7  1  0.09422052  0.50007433  0.71132075  1
  W  W8  1  0.68629451  0.50322347  0.91035902  1
  W  W9  1  0.01313912  0.00358730  0.00731372  1
  C  C10  1  0.70478685  0.99720007  0.91061381  1
  C  C11  1  0.49490015  0.99984290  0.49218898  1
  C  C12  1  0.60221382  0.49922099  0.19173594  1
  C  C13  1  0.89984674  0.99971811  0.28981408  1
  C  C14  1  1.00092714  0.49786923  0.00034796  1
  C  C15  1  0.30016428  0.99918628  0.10208109  1
  C  C16  1  0.40324723  0.49964785  0.80849448  1
  C  C17  1  0.80217749  0.49963381  0.60342589  1
  C  C18  1  0.10149243  -0.00037118  0.70344216  1
  C  C19  1  0.19518462  0.49979258  0.39277582  1
