# generated using pymatgen
data_HfTaTiNbVC5
_symmetry_space_group_name_H-M   'P 1'
_cell_length_a   7.01797463
_cell_length_b   4.44976654
_cell_length_c   7.01527748
_cell_angle_alpha   89.99917642
_cell_angle_beta   90.01339391
_cell_angle_gamma   89.99942473
_symmetry_Int_Tables_number   1
_chemical_formula_structural   HfTaTiNbVC5
_chemical_formula_sum   'Hf2 Ta2 Ti2 Nb2 V2 C10'
_cell_volume   219.07552504
_cell_formula_units_Z   2
loop_
 _symmetry_equiv_pos_site_id
 _symmetry_equiv_pos_as_xyz
  1  'x, y, z'
loop_
 _atom_site_type_symbol
 _atom_site_label
 _atom_site_symmetry_multiplicity
 _atom_site_fract_x
 _atom_site_fract_y
 _atom_site_fract_z
 _atom_site_occupancy
  Hf  Hf0  1  0.50060707  0.49987628  0.49823212  1
  Hf  Hf1  1  0.79959116  0.99993127  0.60814507  1
  Ta  Ta2  1  0.19869625  -0.00017744  0.39295380  1
  Ta  Ta3  1  0.89949336  0.49991501  0.28437259  1
  Ti  Ti4  1  0.30334936  0.49993512  0.09416068  1
  Ti  Ti5  1  0.60167868  -0.00016907  0.19039340  1
  Nb  Nb6  1  0.39936476  0.99981536  0.81302730  1
  Nb  Nb7  1  0.09829441  0.50001840  0.71345101  1
  V  V8  1  0.70328464  0.50108196  0.90922921  1
  V  V9  1  0.99355238  0.00616672  0.99939640  1
  C  C10  1  0.70719494  0.99860881  0.91100661  1
  C  C11  1  0.49533392  -0.00008937  0.49260205  1
  C  C12  1  0.60000316  0.49999178  0.18695600  1
  C  C13  1  0.90032759  0.99970540  0.28878861  1
  C  C14  1  0.99560648  0.49640761  -0.00113391  1
  C  C15  1  0.29376329  -0.00033349  0.10074185  1
  C  C16  1  0.40943208  0.49969495  0.81067821  1
  C  C17  1  0.80248570  0.49998016  0.60593339  1
  C  C18  1  0.10332299  0.99985232  0.70775859  1
  C  C19  1  0.19432544  0.49991646  0.39436003  1
