# generated using pymatgen
data_HfTaTiNbWC5
_symmetry_space_group_name_H-M   'P 1'
_cell_length_a   7.08219317
_cell_length_b   4.47117134
_cell_length_c   7.06204260
_cell_angle_alpha   89.99712772
_cell_angle_beta   89.96874356
_cell_angle_gamma   89.99802387
_symmetry_Int_Tables_number   1
_chemical_formula_structural   HfTaTiNbWC5
_chemical_formula_sum   'Hf2 Ta2 Ti2 Nb2 W2 C10'
_cell_volume   223.62448248
_cell_formula_units_Z   2
loop_
 _symmetry_equiv_pos_site_id
 _symmetry_equiv_pos_as_xyz
  1  'x, y, z'
loop_
 _atom_site_type_symbol
 _atom_site_label
 _atom_site_symmetry_multiplicity
 _atom_site_fract_x
 _atom_site_fract_y
 _atom_site_fract_z
 _atom_site_occupancy
  Hf  Hf0  1  0.49846305  0.49991923  0.49617352  1
  Hf  Hf1  1  0.79614888  -0.00029650  0.60660726  1
  Ta  Ta2  1  0.20021297  -0.00008525  0.39347706  1
  Ta  Ta3  1  0.90409335  0.50009451  0.28701029  1
  Ti  Ti4  1  0.30723567  0.49982306  0.09683185  1
  Ti  Ti5  1  0.60366961  0.99902799  0.19118290  1
  Nb  Nb6  1  0.39187910  -0.00043921  0.80624048  1
  Nb  Nb7  1  0.09413409  0.50017240  0.71138593  1
  W  W8  1  0.68646298  0.49344554  0.91034126  1
  W  W9  1  0.01312518  1.00432765  0.00702647  1
  C  C10  1  0.70456064  0.00260500  0.91061913  1
  C  C11  1  0.49475769  1.00006717  0.49220324  1
  C  C12  1  0.60209558  0.50074616  0.19178595  1
  C  C13  1  0.89980648  -0.00027943  0.28977227  1
  C  C14  1  1.00085719  0.49930978  0.00027600  1
  C  C15  1  0.30003662  -0.00033075  0.10195725  1
  C  C16  1  0.40319447  0.50060476  0.80843828  1
  C  C17  1  0.80210542  0.50030146  0.60335508  1
  C  C18  1  0.10138302  1.00018222  0.70343600  1
  C  C19  1  0.19509848  0.49990715  0.39270254  1
