# generated using pymatgen
data_HfTaTiNbWC5
_symmetry_space_group_name_H-M   'P 1'
_cell_length_a   7.08153431
_cell_length_b   4.47124309
_cell_length_c   7.06093521
_cell_angle_alpha   90.00399845
_cell_angle_beta   89.97133704
_cell_angle_gamma   90.00000355
_symmetry_Int_Tables_number   1
_chemical_formula_structural   HfTaTiNbWC5
_chemical_formula_sum   'Hf2 Ta2 Ti2 Nb2 W2 C10'
_cell_volume   223.57220827
_cell_formula_units_Z   2
loop_
 _symmetry_equiv_pos_site_id
 _symmetry_equiv_pos_as_xyz
  1  'x, y, z'
loop_
 _atom_site_type_symbol
 _atom_site_label
 _atom_site_symmetry_multiplicity
 _atom_site_fract_x
 _atom_site_fract_y
 _atom_site_fract_z
 _atom_site_occupancy
  Hf  Hf0  1  0.49857889  0.49980997  0.49587356  1
  Hf  Hf1  1  0.79607513  0.99998367  0.60618111  1
  Ta  Ta2  1  0.20030235  -0.00040353  0.39339036  1
  Ta  Ta3  1  0.90398561  0.49980054  0.28710983  1
  Ti  Ti4  1  0.30721113  0.49966346  0.09677766  1
  Ti  Ti5  1  0.60358298  1.00046903  0.19125689  1
  Nb  Nb6  1  0.39211590  0.00029343  0.80616650  1
  Nb  Nb7  1  0.09437802  0.50001116  0.71103135  1
  W  W8  1  0.68673903  0.50622343  0.91029743  1
  W  W9  1  0.01292116  0.00674850  0.00686707  1
  C  C10  1  0.70486683  0.99535823  0.91050930  1
  C  C11  1  0.49488126  0.99962998  0.49199868  1
  C  C12  1  0.60213868  0.49856763  0.19147399  1
  C  C13  1  0.89980834  -0.00096272  0.28975097  1
  C  C14  1  1.00097468  0.49575573  0.00033505  1
  C  C15  1  0.30004026  0.99919857  0.10188314  1
  C  C16  1  0.40337724  0.49926799  0.80840566  1
  C  C17  1  0.80215479  0.49932445  0.60319709  1
  C  C18  1  0.10159130  0.99933334  0.70320380  1
  C  C19  1  0.19507755  0.49966629  0.39258583  1
