# generated using pymatgen
data_HfScTiCoNiC5
_symmetry_space_group_name_H-M   'P 1'
_cell_length_a   4.46619512
_cell_length_b   4.36278107
_cell_length_c   21.94138235
_cell_angle_alpha   89.90109514
_cell_angle_beta   90.08542178
_cell_angle_gamma   90.13023855
_symmetry_Int_Tables_number   1
_chemical_formula_structural   HfScTiCoNiC5
_chemical_formula_sum   'Hf4 Sc4 Ti4 Co4 Ni4 C20'
_cell_volume   427.52631336
_cell_formula_units_Z   4
loop_
 _symmetry_equiv_pos_site_id
 _symmetry_equiv_pos_as_xyz
  1  'x, y, z'
loop_
 _atom_site_type_symbol
 _atom_site_label
 _atom_site_symmetry_multiplicity
 _atom_site_fract_x
 _atom_site_fract_y
 _atom_site_fract_z
 _atom_site_occupancy
  Hf  Hf0  1  -0.00201662  -0.00137480  0.00131105  1
  Hf  Hf1  1  0.49747884  0.00148044  0.11130137  1
  Hf  Hf2  1  -0.00269938  0.01219742  0.59883014  1
  Hf  Hf3  1  0.50021247  1.00716398  0.70009854  1
  Sc  Sc4  1  0.01679635  0.48085757  0.29142759  1
  Sc  Sc5  1  1.01676441  0.98572740  0.39478614  1
  Sc  Sc6  1  0.50412977  0.03490933  0.49512199  1
  Sc  Sc7  1  0.50413409  0.99739515  0.90178708  1
  Ti  Ti8  1  -0.00205162  0.49899235  0.10481582  1
  Ti  Ti9  1  0.49331283  0.49845329  1.00354455  1
  Ti  Ti10  1  -0.00847032  -0.00379258  0.80388325  1
  Ti  Ti11  1  0.48038496  0.50031891  0.80246083  1
  Co  Co12  1  0.53763704  0.52547995  0.20277565  1
  Co  Co13  1  0.50334977  0.46218377  0.37470607  1
  Co  Co14  1  0.03352974  0.52225263  0.69288839  1
  Co  Co15  1  0.03699208  0.48892196  0.90074906  1
  Ni  Ni16  1  1.00259008  0.98144005  0.20165037  1
  Ni  Ni17  1  0.51836668  -0.01636243  0.29576865  1
  Ni  Ni18  1  1.03575073  0.51254496  0.51363238  1
  Ni  Ni19  1  0.48722833  0.50885819  0.61162980  1
  C  C20  1  0.99831323  -0.00146791  0.10810438  1
  C  C21  1  -0.01061039  0.49903485  0.99844766  1
  C  C22  1  0.49742115  0.99706772  1.00686269  1
  C  C23  1  0.49498551  0.50078256  0.10780495  1
  C  C24  1  0.01371032  0.98125770  0.28894744  1
  C  C25  1  -0.05152396  0.48009521  0.19499489  1
  C  C26  1  0.47046606  0.94255463  0.21204377  1
  C  C27  1  0.51590724  0.49085072  0.29169694  1
  C  C28  1  -0.00392788  0.00618440  0.49983899  1
  C  C29  1  1.14266505  0.49595395  0.42072348  1
  C  C30  1  0.53180742  0.04688131  0.38177039  1
  C  C31  1  0.37631677  0.53646620  0.45954730  1
  C  C32  1  0.99751011  0.98642960  0.70423730  1
  C  C33  1  0.00796985  0.51047241  0.60725983  1
  C  C34  1  0.49892173  0.01083002  0.59858219  1
  C  C35  1  0.44997755  0.50419806  0.70187282  1
  C  C36  1  1.00060441  0.01833557  0.89867413  1
  C  C37  1  -0.01778742  0.49911385  0.80997991  1
  C  C38  1  0.49452198  0.99902447  0.80112761  1
  C  C39  1  0.43990940  0.49934997  0.90375446  1
