# generated using pymatgen
data_HfScTiCrCoC5
_symmetry_space_group_name_H-M   'P 1'
_cell_length_a   4.44083710
_cell_length_b   4.43447675
_cell_length_c   21.31713515
_cell_angle_alpha   90.10210051
_cell_angle_beta   90.01034724
_cell_angle_gamma   90.02706344
_symmetry_Int_Tables_number   1
_chemical_formula_structural   HfScTiCrCoC5
_chemical_formula_sum   'Hf4 Sc4 Ti4 Cr4 Co4 C20'
_cell_volume   419.79312172
_cell_formula_units_Z   4
loop_
 _symmetry_equiv_pos_site_id
 _symmetry_equiv_pos_as_xyz
  1  'x, y, z'
loop_
 _atom_site_type_symbol
 _atom_site_label
 _atom_site_symmetry_multiplicity
 _atom_site_fract_x
 _atom_site_fract_y
 _atom_site_fract_z
 _atom_site_occupancy
  Hf  Hf0  1  0.99700840  1.00367836  -0.00717993  1
  Hf  Hf1  1  0.99928669  0.00486767  0.19861527  1
  Hf  Hf2  1  0.49870809  0.00396156  0.31029303  1
  Hf  Hf3  1  -0.00456109  0.50107191  0.88741265  1
  Sc  Sc4  1  0.99866607  0.50464556  0.30749347  1
  Sc  Sc5  1  0.50128215  0.50305102  0.19616972  1
  Sc  Sc6  1  0.50048563  0.50714961  0.41544162  1
  Sc  Sc7  1  0.99838254  0.00392036  0.60355019  1
  Ti  Ti8  1  0.49676798  0.00243038  0.09311503  1
  Ti  Ti9  1  0.49839830  0.50413778  0.99102716  1
  Ti  Ti10  1  0.01224791  0.49110544  0.51204989  1
  Ti  Ti11  1  1.02056870  1.00383499  0.79121607  1
  Cr  Cr12  1  0.01924975  0.51150646  0.09493850  1
  Cr  Cr13  1  0.48619842  0.51575848  0.61012516  1
  Cr  Cr14  1  0.50655300  0.99342351  0.88545204  1
  Cr  Cr15  1  0.47781623  0.46024161  0.79037569  1
  Co  Co16  1  -0.02785006  -0.02212341  0.41138830  1
  Co  Co17  1  0.47929358  0.03684717  0.51319556  1
  Co  Co18  1  0.96202023  0.51163375  0.69863116  1
  Co  Co19  1  0.53471938  0.93923992  0.69923936  1
  C  C20  1  0.99665671  0.99452924  0.09539140  1
  C  C21  1  -0.00424271  0.50326745  -0.00236135  1
  C  C22  1  0.49660680  0.00463839  -0.01467932  1
  C  C23  1  0.47892955  0.50212048  0.08820346  1
  C  C24  1  -0.00069997  1.00554201  0.31501093  1
  C  C25  1  1.00040448  0.50328050  0.18920170  1
  C  C26  1  0.49939985  1.00292183  0.19699488  1
  C  C27  1  0.49767286  0.50239740  0.30601941  1
  C  C28  1  0.05727237  0.99646978  0.49633826  1
  C  C29  1  1.00297061  0.56783067  0.41585442  1
  C  C30  1  0.55376815  0.00968094  0.42146996  1
  C  C31  1  0.51661568  0.45182865  0.52133535  1
  C  C32  1  0.94928130  0.96383667  0.70101168  1
  C  C33  1  0.00178086  0.50103754  0.61160224  1
  C  C34  1  0.49554150  0.97712414  0.60667296  1
  C  C35  1  0.51236309  0.51766363  0.70087998  1
  C  C36  1  -0.01883058  1.00036093  0.88802132  1
  C  C37  1  1.01381117  0.49318390  0.78414437  1
  C  C38  1  0.50116968  0.00976941  0.79176460  1
  C  C39  1  0.49584782  0.51099770  0.88478480  1
