# generated using pymatgen
data_HfTiCrCoNiC5
_symmetry_space_group_name_H-M   'P 1'
_cell_length_a   4.34237045
_cell_length_b   4.32229618
_cell_length_c   20.67937543
_cell_angle_alpha   90.09215723
_cell_angle_beta   89.96948868
_cell_angle_gamma   89.97949365
_symmetry_Int_Tables_number   1
_chemical_formula_structural   HfTiCrCoNiC5
_chemical_formula_sum   'Hf4 Ti4 Cr4 Co4 Ni4 C20'
_cell_volume   388.13084773
_cell_formula_units_Z   4
loop_
 _symmetry_equiv_pos_site_id
 _symmetry_equiv_pos_as_xyz
  1  'x, y, z'
loop_
 _atom_site_type_symbol
 _atom_site_label
 _atom_site_symmetry_multiplicity
 _atom_site_fract_x
 _atom_site_fract_y
 _atom_site_fract_z
 _atom_site_occupancy
  Hf  Hf0  1  0.99572116  0.99561537  0.19392727  1
  Hf  Hf1  1  0.49444057  -0.00442898  0.30748299  1
  Hf  Hf2  1  0.49243576  0.49797790  0.19618396  1
  Hf  Hf3  1  1.00019317  0.49352380  0.90445440  1
  Ti  Ti4  1  -0.00433137  1.00596520  0.40977193  1
  Ti  Ti5  1  0.00696587  0.49460336  0.69168668  1
  Ti  Ti6  1  1.00179585  -0.00449803  0.79625133  1
  Ti  Ti7  1  0.50202349  0.49515032  0.79552433  1
  Cr  Cr8  1  1.02261302  0.52411927  0.50118194  1
  Cr  Cr9  1  0.52584710  0.48555647  0.41016567  1
  Cr  Cr10  1  -0.04354099  1.00253653  0.59976736  1
  Cr  Cr11  1  0.53033756  0.51643752  0.59717855  1
  Co  Co12  1  1.05393111  -0.02580442  -0.00080182  1
  Co  Co13  1  0.96855345  0.47840189  0.09309335  1
  Co  Co14  1  0.53878797  1.04142463  0.08731803  1
  Co  Co15  1  -0.01390249  0.50229433  0.30952654  1
  Ni  Ni16  1  0.49558261  0.53301682  0.99827490  1
  Ni  Ni17  1  0.48202339  1.00163771  0.50719727  1
  Ni  Ni18  1  0.49909045  0.99611309  0.69603946  1
  Ni  Ni19  1  0.50098082  0.99933360  0.90336477  1
  C  C20  1  0.96537250  0.01530750  0.08541237  1
  C  C21  1  0.02124951  0.54360279  1.01026751  1
  C  C22  1  0.47544777  1.00792661  -0.00077339  1
  C  C23  1  0.51339546  0.47006263  0.08914488  1
  C  C24  1  -0.00503549  0.98321344  0.30606519  1
  C  C25  1  -0.00753330  0.49608509  0.20431062  1
  C  C26  1  0.49508999  -0.00339224  0.18924217  1
  C  C27  1  0.50438654  0.49576228  0.31240260  1
  C  C28  1  0.00687855  0.99302988  0.50842433  1
  C  C29  1  0.98975892  0.50116387  0.40362178  1
  C  C30  1  0.49800266  1.01056544  0.41462020  1
  C  C31  1  0.49035625  0.50021221  0.50306138  1
  C  C32  1  0.00013022  -0.00421327  0.69338480  1
  C  C33  1  0.99500631  0.48730599  0.59293554  1
  C  C34  1  0.49926420  0.98681092  0.59955032  1
  C  C35  1  0.50101084  0.49673428  0.69156719  1
  C  C36  1  1.00181230  0.99555038  0.90533316  1
  C  C37  1  0.00128533  0.49586084  0.79433198  1
  C  C38  1  0.50161466  -0.00370208  0.79919219  1
  C  C39  1  0.50171709  0.49948755  0.90113686  1
