# generated using pymatgen
data_HfMgTiCrNiC5
_symmetry_space_group_name_H-M   'P 1'
_cell_length_a   4.36467645
_cell_length_b   4.35503168
_cell_length_c   21.58191384
_cell_angle_alpha   89.96565982
_cell_angle_beta   90.04685463
_cell_angle_gamma   90.03543786
_symmetry_Int_Tables_number   1
_chemical_formula_structural   HfMgTiCrNiC5
_chemical_formula_sum   'Hf4 Mg4 Ti4 Cr4 Ni4 C20'
_cell_volume   410.23529432
_cell_formula_units_Z   4
loop_
 _symmetry_equiv_pos_site_id
 _symmetry_equiv_pos_as_xyz
  1  'x, y, z'
loop_
 _atom_site_type_symbol
 _atom_site_label
 _atom_site_symmetry_multiplicity
 _atom_site_fract_x
 _atom_site_fract_y
 _atom_site_fract_z
 _atom_site_occupancy
  Hf  Hf0  1  0.00089763  0.00175324  0.99868834  1
  Hf  Hf1  1  0.50235102  -0.00178595  0.30321103  1
  Hf  Hf2  1  0.00337366  -0.00033798  0.79149734  1
  Hf  Hf3  1  0.00018416  0.49645421  0.89329978  1
  Mg  Mg4  1  1.00189423  0.99781242  0.20069068  1
  Mg  Mg5  1  0.50341100  0.50156453  0.19783272  1
  Mg  Mg6  1  0.00056901  0.99961942  0.40733655  1
  Mg  Mg7  1  0.51206584  0.50081482  0.41007832  1
  Ti  Ti8  1  0.50469084  1.00480945  0.10166489  1
  Ti  Ti9  1  0.00483471  0.49792764  0.31079368  1
  Ti  Ti10  1  0.49536661  1.00510446  0.50487303  1
  Ti  Ti11  1  -0.00486235  -0.00168616  0.60117319  1
  Cr  Cr12  1  0.02949469  0.49192950  0.09897270  1
  Cr  Cr13  1  0.50776103  0.51465897  0.99643543  1
  Cr  Cr14  1  -0.04708887  0.49252496  0.69205516  1
  Cr  Cr15  1  0.50026621  0.97588626  0.89662548  1
  Ni  Ni16  1  0.01534526  0.50427302  0.50430203  1
  Ni  Ni17  1  0.50395910  -0.02487907  0.69785071  1
  Ni  Ni18  1  0.47922490  0.50983020  0.60793983  1
  Ni  Ni19  1  0.50045685  0.50657004  0.78745669  1
  C  C20  1  1.00353069  0.01321060  0.09875002  1
  C  C21  1  -0.01228971  0.50178503  0.00324021  1
  C  C22  1  0.50045327  0.99571728  0.99081909  1
  C  C23  1  0.48673283  0.50404135  0.08655277  1
  C  C24  1  0.00224242  0.99783829  0.30274202  1
  C  C25  1  1.00045359  0.49850811  0.18401798  1
  C  C26  1  0.50190091  0.99981213  0.19340837  1
  C  C27  1  0.50429499  0.49805969  0.30238696  1
  C  C28  1  -0.00452063  0.00524114  0.50717798  1
  C  C29  1  0.01077693  0.50021249  0.40452964  1
  C  C30  1  0.50093857  0.00088995  0.41163520  1
  C  C31  1  0.48417216  0.50439848  0.51835067  1
  C  C32  1  -0.01018795  0.00290161  0.69325404  1
  C  C33  1  0.00863810  0.49952812  0.60073424  1
  C  C34  1  0.49515546  -0.00677197  0.60794910  1
  C  C35  1  0.51387049  0.50658813  0.70044599  1
  C  C36  1  1.00170935  -0.00370843  0.89583733  1
  C  C37  1  1.00113437  0.49929505  0.78533716  1
  C  C38  1  0.50249709  -0.00044216  0.80456712  1
  C  C39  1  0.49954824  0.51335694  0.90476404  1
