# generated using pymatgen
data_HfMgScTiCrC5
_symmetry_space_group_name_H-M   'P 1'
_cell_length_a   4.45415082
_cell_length_b   4.46008605
_cell_length_c   22.33865148
_cell_angle_alpha   89.96957585
_cell_angle_beta   90.03080339
_cell_angle_gamma   89.99654781
_symmetry_Int_Tables_number   1
_chemical_formula_structural   HfMgScTiCrC5
_chemical_formula_sum   'Hf4 Mg4 Sc4 Ti4 Cr4 C20'
_cell_volume   443.77719863
_cell_formula_units_Z   4
loop_
 _symmetry_equiv_pos_site_id
 _symmetry_equiv_pos_as_xyz
  1  'x, y, z'
loop_
 _atom_site_type_symbol
 _atom_site_label
 _atom_site_symmetry_multiplicity
 _atom_site_fract_x
 _atom_site_fract_y
 _atom_site_fract_z
 _atom_site_occupancy
  Hf  Hf0  1  0.49996094  -0.00016472  0.10109140  1
  Hf  Hf1  1  1.00080707  -0.00021527  0.20407130  1
  Hf  Hf2  1  -0.00007987  0.50063824  0.50163227  1
  Hf  Hf3  1  0.99997827  0.49808246  0.69466018  1
  Mg  Mg4  1  0.00212100  0.00093291  -0.00084252  1
  Mg  Mg5  1  0.50048402  0.49951106  0.20426453  1
  Mg  Mg6  1  0.49819784  0.01249996  0.49844714  1
  Mg  Mg7  1  0.00025636  1.00005224  0.79435989  1
  Sc  Sc8  1  0.50311179  0.50022756  -0.00102555  1
  Sc  Sc9  1  -0.00198852  0.00472371  0.40435927  1
  Sc  Sc10  1  0.49771546  1.00442920  0.69320373  1
  Sc  Sc11  1  0.50050770  1.00086288  0.89789260  1
  Ti  Ti12  1  -0.00066863  0.50103765  0.30487098  1
  Ti  Ti13  1  0.50020299  0.00375282  0.30444922  1
  Ti  Ti14  1  0.00074616  0.50075190  0.88950874  1
  Ti  Ti15  1  0.50054659  0.50042987  0.79703719  1
  Cr  Cr16  1  0.01570671  0.50821552  0.09757137  1
  Cr  Cr17  1  0.48458537  0.54037182  0.40244348  1
  Cr  Cr18  1  -0.02275630  -0.03971784  0.59616081  1
  Cr  Cr19  1  0.51195374  0.54309597  0.59533021  1
  C  C20  1  0.99866151  0.99004568  0.10380544  1
  C  C21  1  1.00183660  0.50060151  1.01772578  1
  C  C22  1  0.50187818  0.00030728  1.00190235  1
  C  C23  1  0.47518700  0.49957248  0.10325330  1
  C  C24  1  0.00006543  1.00207965  0.30431514  1
  C  C25  1  0.99950539  0.49937773  0.20840117  1
  C  C26  1  0.50108716  0.99836109  0.20973238  1
  C  C27  1  0.50342272  0.49266006  0.31460379  1
  C  C28  1  0.00007917  1.00348728  0.51114712  1
  C  C29  1  1.01984627  0.50150959  0.40026918  1
  C  C30  1  0.50027923  0.94958485  0.39995373  1
  C  C31  1  0.50063101  0.50522232  0.49856944  1
  C  C32  1  0.99988808  0.00113007  0.68375215  1
  C  C33  1  -0.01025151  0.51049870  0.59774302  1
  C  C34  1  0.51450707  0.95284985  0.59389055  1
  C  C35  1  0.49987906  0.50363605  0.68847993  1
  C  C36  1  0.00026859  1.00127747  0.89917781  1
  C  C37  1  0.00043037  0.50104681  0.79906169  1
  C  C38  1  0.50046948  1.00587540  0.79306822  1
  C  C39  1  0.50061000  0.50092550  0.89127033  1
