# generated using pymatgen
data_HfMgTiMnCrC5
_symmetry_space_group_name_H-M   'P 1'
_cell_length_a   4.39841140
_cell_length_b   4.42135417
_cell_length_c   21.43742885
_cell_angle_alpha   89.68000742
_cell_angle_beta   89.66029090
_cell_angle_gamma   89.99560792
_symmetry_Int_Tables_number   1
_chemical_formula_structural   HfMgTiMnCrC5
_chemical_formula_sum   'Hf4 Mg4 Ti4 Mn4 Cr4 C20'
_cell_volume   416.87844715
_cell_formula_units_Z   4
loop_
 _symmetry_equiv_pos_site_id
 _symmetry_equiv_pos_as_xyz
  1  'x, y, z'
loop_
 _atom_site_type_symbol
 _atom_site_label
 _atom_site_symmetry_multiplicity
 _atom_site_fract_x
 _atom_site_fract_y
 _atom_site_fract_z
 _atom_site_occupancy
  Hf  Hf0  1  0.02069285  0.99862278  0.99687573  1
  Hf  Hf1  1  0.01131310  0.00872761  0.19598001  1
  Hf  Hf2  1  1.01118803  0.50687460  0.30019622  1
  Hf  Hf3  1  0.48486789  0.49861803  0.60372519  1
  Mg  Mg4  1  0.51700434  0.51787403  0.19593376  1
  Mg  Mg5  1  -0.01284678  0.51264014  0.50008709  1
  Mg  Mg6  1  0.51189148  0.51423370  0.40296375  1
  Mg  Mg7  1  -0.03106218  0.48133030  0.70294540  1
  Ti  Ti8  1  0.50995626  1.00856112  0.30786739  1
  Ti  Ti9  1  0.98840969  0.99985823  0.59610113  1
  Ti  Ti10  1  0.99055951  0.48863256  0.89950040  1
  Ti  Ti11  1  0.47490861  0.48027009  0.80345197  1
  Mn  Mn12  1  0.48568778  1.06041071  0.09979277  1
  Mn  Mn13  1  0.43414736  0.95518842  0.71229504  1
  Mn  Mn14  1  0.92237892  0.93911162  0.79875660  1
  Mn  Mn15  1  0.54667239  -0.05521177  0.90373993  1
  Cr  Cr16  1  0.05389876  0.49178282  0.09487425  1
  Cr  Cr17  1  0.50827541  0.51503504  -0.00280705  1
  Cr  Cr18  1  0.02654692  0.04485670  0.40705271  1
  Cr  Cr19  1  0.47265380  0.04188970  0.49760831  1
  C  C20  1  1.05267282  0.01327046  0.09520752  1
  C  C21  1  1.01814404  0.49838706  0.00077364  1
  C  C22  1  0.52014504  -0.01845874  -0.00715604  1
  C  C23  1  0.51401837  0.47365900  0.08712613  1
  C  C24  1  0.00870049  1.00579114  0.30779132  1
  C  C25  1  0.01553471  0.51049867  0.18780520  1
  C  C26  1  0.51491198  1.01642552  0.18819859  1
  C  C27  1  0.51103200  0.51147329  0.29878306  1
  C  C28  1  0.00632944  1.00275463  0.49810595  1
  C  C29  1  1.00931068  0.45973851  0.40127721  1
  C  C30  1  0.49293672  0.00576365  0.40652228  1
  C  C31  1  0.49034675  0.45674784  0.50196698  1
  C  C32  1  1.02059593  -0.00389606  0.71086038  1
  C  C33  1  -0.01576792  0.49947034  0.60269488  1
  C  C34  1  0.49017487  -0.00230767  0.59803071  1
  C  C35  1  0.47394831  0.53124242  0.70848935  1
  C  C36  1  0.97413082  0.00103062  0.88926551  1
  C  C37  1  0.97869747  0.51750360  0.80431398  1
  C  C38  1  0.50440642  -0.00270248  0.79927666  1
  C  C39  1  0.49196393  0.51651915  0.90423111  1
