# generated using pymatgen
data_HfMgTiCrCoC5
_symmetry_space_group_name_H-M   'P 1'
_cell_length_a   4.38468769
_cell_length_b   4.49331351
_cell_length_c   21.07022264
_cell_angle_alpha   90.31079281
_cell_angle_beta   89.89741810
_cell_angle_gamma   90.06569911
_symmetry_Int_Tables_number   1
_chemical_formula_structural   HfMgTiCrCoC5
_chemical_formula_sum   'Hf4 Mg4 Ti4 Cr4 Co4 C20'
_cell_volume   415.11377453
_cell_formula_units_Z   4
loop_
 _symmetry_equiv_pos_site_id
 _symmetry_equiv_pos_as_xyz
  1  'x, y, z'
loop_
 _atom_site_type_symbol
 _atom_site_label
 _atom_site_symmetry_multiplicity
 _atom_site_fract_x
 _atom_site_fract_y
 _atom_site_fract_z
 _atom_site_occupancy
  Hf  Hf0  1  0.00002239  0.00021664  0.99629914  1
  Hf  Hf1  1  0.50132250  0.49927915  0.99962077  1
  Hf  Hf2  1  -0.00591440  0.01270969  0.20776818  1
  Hf  Hf3  1  0.00289107  0.49537978  0.88667780  1
  Mg  Mg4  1  0.99636675  0.51083558  0.31285917  1
  Mg  Mg5  1  0.49443159  0.01259155  0.31376837  1
  Mg  Mg6  1  -0.01742176  0.99350366  0.41095918  1
  Mg  Mg7  1  0.50987732  1.01826137  0.69085117  1
  Ti  Ti8  1  0.49498640  -0.00479220  0.10396523  1
  Ti  Ti9  1  0.49462473  0.50861309  0.20745301  1
  Ti  Ti10  1  1.01059158  0.48727428  0.69046897  1
  Ti  Ti11  1  0.50442467  1.00115601  0.88613997  1
  Cr  Cr12  1  0.99605151  0.94093094  0.59893115  1
  Cr  Cr13  1  0.49493837  0.54684877  0.59530402  1
  Cr  Cr14  1  0.01940931  -0.03533867  0.78538161  1
  Cr  Cr15  1  0.49813154  0.55341350  0.78415337  1
  Co  Co16  1  0.01930253  0.54388102  0.10444116  1
  Co  Co17  1  0.96891106  0.45519675  0.50589664  1
  Co  Co18  1  0.46158085  0.05174012  0.50625245  1
  Co  Co19  1  0.51695158  0.53161614  0.40798527  1
  C  C20  1  -0.00754303  0.95528346  0.10004729  1
  C  C21  1  0.00007010  0.49957521  0.00295435  1
  C  C22  1  0.50027647  0.00026588  -0.00559581  1
  C  C23  1  0.47164505  0.49727655  0.10626517  1
  C  C24  1  -0.00474688  0.01138048  0.30989191  1
  C  C25  1  -0.00807985  0.51005488  0.19842557  1
  C  C26  1  0.49439349  1.01028561  0.20272450  1
  C  C27  1  0.49626542  0.51271272  0.31781621  1
  C  C28  1  0.03516001  0.05063794  0.51351882  1
  C  C29  1  0.95322473  0.49388624  0.42204966  1
  C  C30  1  0.48091907  0.91453645  0.42521357  1
  C  C31  1  0.53298063  0.46064292  0.50277675  1
  C  C32  1  0.01037757  -0.00187715  0.69121361  1
  C  C33  1  0.01561187  0.51334800  0.59258210  1
  C  C34  1  0.53134416  0.96403165  0.59022443  1
  C  C35  1  0.50858953  0.50368200  0.69042010  1
  C  C36  1  1.00410479  -0.00299124  0.88405163  1
  C  C37  1  0.01749808  0.51651710  0.78529653  1
  C  C38  1  0.50453560  0.96953420  0.79046814  1
  C  C39  1  0.50429187  0.49561678  0.88461326  1
