# generated using pymatgen
data_HfTiMnCrCoC5
_symmetry_space_group_name_H-M   'P 1'
_cell_length_a   4.33480989
_cell_length_b   4.34901481
_cell_length_c   20.79073411
_cell_angle_alpha   90.60937809
_cell_angle_beta   89.76226849
_cell_angle_gamma   89.74840766
_symmetry_Int_Tables_number   1
_chemical_formula_structural   HfTiMnCrCoC5
_chemical_formula_sum   'Hf4 Ti4 Mn4 Cr4 Co4 C20'
_cell_volume   391.92069129
_cell_formula_units_Z   4
loop_
 _symmetry_equiv_pos_site_id
 _symmetry_equiv_pos_as_xyz
  1  'x, y, z'
loop_
 _atom_site_type_symbol
 _atom_site_label
 _atom_site_symmetry_multiplicity
 _atom_site_fract_x
 _atom_site_fract_y
 _atom_site_fract_z
 _atom_site_occupancy
  Hf  Hf0  1  0.49620930  0.48708173  -0.00809774  1
  Hf  Hf1  1  1.00297976  0.51502698  0.30362169  1
  Hf  Hf2  1  0.50437955  0.50212735  0.19747009  1
  Hf  Hf3  1  -0.00998445  0.99563613  0.60425505  1
  Ti  Ti4  1  0.49809543  0.00161788  0.09617715  1
  Ti  Ti5  1  0.50340186  1.01045457  0.30498467  1
  Ti  Ti6  1  0.99743764  0.50258377  0.70653324  1
  Ti  Ti7  1  0.52749471  0.98191121  0.89150592  1
  Mn  Mn8  1  1.03723769  0.06049517  0.41067680  1
  Mn  Mn9  1  0.92722327  0.47135047  0.50456974  1
  Mn  Mn10  1  0.51140083  1.03287383  0.50205586  1
  Mn  Mn11  1  1.08542163  0.06077196  0.80273347  1
  Cr  Cr12  1  1.00561855  0.97245730  0.99468346  1
  Cr  Cr13  1  0.50230683  0.47758934  0.41092148  1
  Cr  Cr14  1  0.46893678  0.97231434  0.70125845  1
  Cr  Cr15  1  0.49622915  0.51321352  0.60487221  1
  Co  Co16  1  0.00401962  0.55328724  0.09403341  1
  Co  Co17  1  0.00955226  0.98863424  0.19613462  1
  Co  Co18  1  0.97730130  0.44759547  0.89657602  1
  Co  Co19  1  0.50838833  0.49360580  0.79379659  1
  C  C20  1  0.99695827  0.96850308  0.09311916  1
  C  C21  1  -0.00193853  0.50672237  0.99081740  1
  C  C22  1  0.49492224  0.98872773  -0.00648461  1
  C  C23  1  0.49496226  0.49735146  0.09497070  1
  C  C24  1  0.99859324  1.01283389  0.29508712  1
  C  C25  1  0.00237477  0.51839699  0.18950329  1
  C  C26  1  0.48598661  0.00344300  0.20040638  1
  C  C27  1  0.50342359  0.51029442  0.31273018  1
  C  C28  1  0.97044722  1.00766466  0.49754296  1
  C  C29  1  0.98560217  0.49403110  0.41138149  1
  C  C30  1  0.46737991  0.01008886  0.40881550  1
  C  C31  1  0.49788506  0.49507765  0.50776331  1
  C  C32  1  -0.00695878  -0.00279187  0.71212080  1
  C  C33  1  -0.01347516  0.49575108  0.60075437  1
  C  C34  1  0.48815475  0.98722149  0.60369268  1
  C  C35  1  0.49806232  0.50303923  0.70117786  1
  C  C36  1  1.02071028  0.00841986  0.89689297  1
  C  C37  1  1.01035501  0.47834335  0.80666905  1
  C  C38  1  0.50252292  0.98449649  0.79208620  1
  C  C39  1  0.54661133  0.48860807  0.88275648  1
