# generated using pymatgen
data_HfTiMnCrNiC5
_symmetry_space_group_name_H-M   'P 1'
_cell_length_a   4.34995480
_cell_length_b   4.33456228
_cell_length_c   20.95515322
_cell_angle_alpha   89.94082267
_cell_angle_beta   89.91553503
_cell_angle_gamma   89.68345160
_symmetry_Int_Tables_number   1
_chemical_formula_structural   HfTiMnCrNiC5
_chemical_formula_sum   'Hf4 Ti4 Mn4 Cr4 Ni4 C20'
_cell_volume   395.10588992
_cell_formula_units_Z   4
loop_
 _symmetry_equiv_pos_site_id
 _symmetry_equiv_pos_as_xyz
  1  'x, y, z'
loop_
 _atom_site_type_symbol
 _atom_site_label
 _atom_site_symmetry_multiplicity
 _atom_site_fract_x
 _atom_site_fract_y
 _atom_site_fract_z
 _atom_site_occupancy
  Hf  Hf0  1  -0.02030343  0.51395009  0.09817058  1
  Hf  Hf1  1  0.48213410  1.01357790  0.09029152  1
  Hf  Hf2  1  0.48862450  1.00750273  0.31118823  1
  Hf  Hf3  1  0.99031757  0.52658320  0.89412037  1
  Ti  Ti4  1  0.98667691  0.01251970  0.20617501  1
  Ti  Ti5  1  0.02334462  0.47504628  0.50024486  1
  Ti  Ti6  1  1.01666445  0.98050303  0.60070901  1
  Ti  Ti7  1  0.51719481  0.98709479  0.70107531  1
  Mn  Mn8  1  0.44811527  0.47385585  0.20542473  1
  Mn  Mn9  1  0.55948403  0.53318970  0.40878504  1
  Mn  Mn10  1  0.55444589  0.51643241  0.60124848  1
  Mn  Mn11  1  1.06902611  1.06101357  0.79442652  1
  Cr  Cr12  1  0.97584440  0.50751226  0.30802498  1
  Cr  Cr13  1  0.49422101  -0.04710535  0.50611156  1
  Cr  Cr14  1  0.50197084  0.03113848  0.89288021  1
  Cr  Cr15  1  0.47924258  0.48241823  0.79204330  1
  Ni  Ni16  1  -0.01311271  1.01635195  -0.00735334  1
  Ni  Ni17  1  0.48658341  0.51189646  0.98406987  1
  Ni  Ni18  1  0.99717729  0.98281325  0.40720362  1
  Ni  Ni19  1  -0.00675123  0.48773936  0.69453001  1
  C  C20  1  -0.01796530  1.01312009  0.09693315  1
  C  C21  1  -0.00515355  0.51225161  0.99548508  1
  C  C22  1  0.48286010  0.01347837  0.98362696  1
  C  C23  1  0.48283416  0.51833716  0.11447214  1
  C  C24  1  0.99039357  1.00137386  0.30850979  1
  C  C25  1  0.02219751  0.51704789  0.21377447  1
  C  C26  1  0.49134911  1.04824610  0.20381688  1
  C  C27  1  0.51207029  0.50710202  0.31061869  1
  C  C28  1  0.02961832  0.98200910  0.50081712  1
  C  C29  1  -0.01775276  0.48161713  0.40058510  1
  C  C30  1  0.50443104  -0.03866224  0.41497931  1
  C  C31  1  0.51744103  0.48384724  0.50337144  1
  C  C32  1  0.00587378  -0.03142845  0.70535459  1
  C  C33  1  0.98232217  0.47680352  0.60219990  1
  C  C34  1  0.51258211  -0.04379147  0.59909327  1
  C  C35  1  0.51376403  0.48369989  0.69605795  1
  C  C36  1  -0.03188148  1.01987184  0.88636253  1
  C  C37  1  0.01337497  0.47951163  0.78490187  1
  C  C38  1  0.48748788  0.99270963  0.80087330  1
  C  C39  1  0.49195568  0.51173950  0.88851806  1
