# generated using pymatgen
data_HfScTiMnCrC5
_symmetry_space_group_name_H-M   'P 1'
_cell_length_a   4.43672817
_cell_length_b   4.44931172
_cell_length_c   21.50426671
_cell_angle_alpha   90.11053375
_cell_angle_beta   89.96213550
_cell_angle_gamma   90.06571411
_symmetry_Int_Tables_number   1
_chemical_formula_structural   HfScTiMnCrC5
_chemical_formula_sum   'Hf4 Sc4 Ti4 Mn4 Cr4 C20'
_cell_volume   424.50137847
_cell_formula_units_Z   4
loop_
 _symmetry_equiv_pos_site_id
 _symmetry_equiv_pos_as_xyz
  1  'x, y, z'
loop_
 _atom_site_type_symbol
 _atom_site_label
 _atom_site_symmetry_multiplicity
 _atom_site_fract_x
 _atom_site_fract_y
 _atom_site_fract_z
 _atom_site_occupancy
  Hf  Hf0  1  0.99305364  0.50607771  0.10781989  1
  Hf  Hf1  1  0.51037067  0.00129624  0.69341972  1
  Hf  Hf2  1  0.51314401  0.49790624  0.58787356  1
  Hf  Hf3  1  1.00800527  0.00363536  0.80267194  1
  Sc  Sc4  1  0.48632248  0.50571716  0.00334192  1
  Sc  Sc5  1  0.99244209  0.02187687  0.20976052  1
  Sc  Sc6  1  1.01034415  0.50375726  0.69199753  1
  Sc  Sc7  1  0.00097069  0.50691647  0.90370427  1
  Ti  Ti8  1  0.49272061  1.00489652  0.10605024  1
  Ti  Ti9  1  0.50113310  -0.00072658  0.30609029  1
  Ti  Ti10  1  0.49766589  0.48745854  0.39795463  1
  Ti  Ti11  1  0.50510324  0.50247503  0.80206559  1
  Mn  Mn12  1  0.94979827  0.03647134  1.00165608  1
  Mn  Mn13  1  0.94998131  0.55770410  0.30736263  1
  Mn  Mn14  1  0.46036605  0.55145923  0.20812078  1
  Mn  Mn15  1  0.04787807  0.03789850  0.58622992  1
  Cr  Cr16  1  0.01338516  0.95985483  0.40367422  1
  Cr  Cr17  1  -0.00333754  0.53055940  0.48857115  1
  Cr  Cr18  1  0.45371906  0.95728730  0.49102984  1
  Cr  Cr19  1  0.52145597  0.01834433  0.90459486  1
  C  C20  1  -0.00451018  1.00216286  0.09741773  1
  C  C21  1  0.99132830  0.45610900  1.00676636  1
  C  C22  1  0.53089346  -0.00212778  0.99945697  1
  C  C23  1  0.49684816  0.49546989  0.11618106  1
  C  C24  1  -0.00215772  0.97778993  0.31325603  1
  C  C25  1  0.04754615  0.51092831  0.21854280  1
  C  C26  1  0.49588227  0.96978902  0.20519664  1
  C  C27  1  0.53997439  0.49295944  0.29723680  1
  C  C28  1  0.99699533  -0.03172379  0.49588702  1
  C  C29  1  1.00448014  0.49135996  0.39643636  1
  C  C30  1  0.48229280  0.99537040  0.40209011  1
  C  C31  1  0.50910391  0.51016712  0.48912222  1
  C  C32  1  1.00765510  1.00158402  0.68163342  1
  C  C33  1  1.00884637  0.45740329  0.58091490  1
  C  C34  1  0.47057982  0.99782958  0.58505754  1
  C  C35  1  0.51083613  0.50162074  0.69754545  1
  C  C36  1  0.98737289  0.00142693  0.91124186  1
  C  C37  1  1.00902165  0.50326112  0.79743600  1
  C  C38  1  0.50755311  -0.00097360  0.80617617  1
  C  C39  1  0.50010680  0.48037944  0.89856235  1
