# generated using pymatgen
data_HfTiMnCrMoC5
_symmetry_space_group_name_H-M   'P 1'
_cell_length_a   4.37851327
_cell_length_b   4.37968395
_cell_length_c   21.42483215
_cell_angle_alpha   89.98409518
_cell_angle_beta   90.20029448
_cell_angle_gamma   90.09477129
_symmetry_Int_Tables_number   1
_chemical_formula_structural   HfTiMnCrMoC5
_chemical_formula_sum   'Hf4 Ti4 Mn4 Cr4 Mo4 C20'
_cell_volume   410.85029753
_cell_formula_units_Z   4
loop_
 _symmetry_equiv_pos_site_id
 _symmetry_equiv_pos_as_xyz
  1  'x, y, z'
loop_
 _atom_site_type_symbol
 _atom_site_label
 _atom_site_symmetry_multiplicity
 _atom_site_fract_x
 _atom_site_fract_y
 _atom_site_fract_z
 _atom_site_occupancy
  Hf  Hf0  1  0.99399371  0.50103559  0.49284906  1
  Hf  Hf1  1  0.49047430  0.99938536  0.49221572  1
  Hf  Hf2  1  0.99585970  0.50424415  0.70698168  1
  Hf  Hf3  1  0.50019906  0.50227956  0.60216847  1
  Ti  Ti4  1  0.00243962  0.50202497  0.09954492  1
  Ti  Ti5  1  0.50114184  0.49670838  1.00081477  1
  Ti  Ti6  1  1.00530759  0.51262133  0.29799376  1
  Ti  Ti7  1  0.00005100  -0.00296842  0.80627386  1
  Mn  Mn8  1  0.54402940  0.96220527  0.09549750  1
  Mn  Mn9  1  1.03264293  1.02723837  0.61143651  1
  Mn  Mn10  1  -0.01512585  0.51540942  0.90482211  1
  Mn  Mn11  1  0.54349345  -0.04443009  0.90069294  1
  Cr  Cr12  1  0.51939122  0.02666861  0.29695488  1
  Cr  Cr13  1  0.96838835  0.03131758  0.38990329  1
  Cr  Cr14  1  0.49836521  0.47069072  0.38926702  1
  Cr  Cr15  1  0.49177158  0.99512455  0.70569480  1
  Mo  Mo16  1  0.02416351  0.00913296  -0.00193450  1
  Mo  Mo17  1  0.02822428  0.00668248  0.20328173  1
  Mo  Mo18  1  0.51570475  0.47147907  0.20238578  1
  Mo  Mo19  1  0.49186841  0.46965661  0.80944615  1
  C  C20  1  0.96598870  1.00266609  0.10000786  1
  C  C21  1  0.00265967  0.49571009  -0.00175597  1
  C  C22  1  0.49621706  1.00325246  0.00296989  1
  C  C23  1  0.49701318  0.53321888  0.10079021  1
  C  C24  1  0.98902442  1.00367772  0.29841111  1
  C  C25  1  1.00182920  0.50064765  0.19717229  1
  C  C26  1  0.49875211  0.99951676  0.19950820  1
  C  C27  1  0.49890076  0.50134667  0.29831394  1
  C  C28  1  0.99122514  0.99988626  0.48771975  1
  C  C29  1  0.00021474  0.49129246  0.39068871  1
  C  C30  1  0.50311644  0.01160801  0.38719900  1
  C  C31  1  0.49463769  0.50092765  0.49118296  1
  C  C32  1  -0.00851342  0.00304506  0.70033744  1
  C  C33  1  -0.00384163  0.46428841  0.60088435  1
  C  C34  1  0.45967822  0.99957912  0.60785117  1
  C  C35  1  0.49740432  0.51935441  0.70916148  1
  C  C36  1  0.97178532  0.99216303  0.90390555  1
  C  C37  1  0.00405141  0.49457035  0.81153288  1
  C  C38  1  0.49896231  0.99761984  0.80416430  1
  C  C39  1  0.50693610  0.52774515  0.90339352  1
