# generated using pymatgen
data_HfMgTiCrMoC5
_symmetry_space_group_name_H-M   'P 1'
_cell_length_a   4.38321049
_cell_length_b   4.38403350
_cell_length_c   22.05706549
_cell_angle_alpha   90.02605817
_cell_angle_beta   90.00808402
_cell_angle_gamma   89.99616853
_symmetry_Int_Tables_number   1
_chemical_formula_structural   HfMgTiCrMoC5
_chemical_formula_sum   'Hf4 Mg4 Ti4 Cr4 Mo4 C20'
_cell_volume   423.85164510
_cell_formula_units_Z   4
loop_
 _symmetry_equiv_pos_site_id
 _symmetry_equiv_pos_as_xyz
  1  'x, y, z'
loop_
 _atom_site_type_symbol
 _atom_site_label
 _atom_site_symmetry_multiplicity
 _atom_site_fract_x
 _atom_site_fract_y
 _atom_site_fract_z
 _atom_site_occupancy
  Hf  Hf0  1  0.50426182  1.00021070  0.30396955  1
  Hf  Hf1  1  0.50185501  0.49860659  0.20013361  1
  Hf  Hf2  1  1.00369638  -0.00080599  0.60785233  1
  Hf  Hf3  1  0.50250123  0.50121847  0.79065874  1
  Mg  Mg4  1  0.49381432  1.00139454  0.09870686  1
  Mg  Mg5  1  0.49237465  0.50526739  -0.00512214  1
  Mg  Mg6  1  1.00295231  0.99818067  0.20313074  1
  Mg  Mg7  1  0.50569992  0.00199862  0.69932005  1
  Ti  Ti8  1  0.99676755  0.49774436  0.50724219  1
  Ti  Ti9  1  0.50015940  0.99955096  0.50626097  1
  Ti  Ti10  1  0.99954449  0.49649067  0.89378074  1
  Ti  Ti11  1  0.49724536  0.99759755  0.89406467  1
  Cr  Cr12  1  -0.00362821  0.51145748  0.31972909  1
  Cr  Cr13  1  1.02017551  0.51376323  0.69901919  1
  Cr  Cr14  1  0.50817638  0.49860690  0.60169470  1
  Cr  Cr15  1  0.00262369  0.00434137  0.79659178  1
  Mo  Mo16  1  0.97491135  0.01888998  0.99388090  1
  Mo  Mo17  1  0.97834913  0.50980558  0.09632916  1
  Mo  Mo18  1  0.01682772  0.02242032  0.40559834  1
  Mo  Mo19  1  0.48331175  0.51548563  0.40600420  1
  C  C20  1  0.00280102  -0.01114337  0.08513320  1
  C  C21  1  1.00019690  0.48981249  0.99088995  1
  C  C22  1  0.51035496  0.00189818  0.98880272  1
  C  C23  1  0.51571703  0.50084162  0.09714708  1
  C  C24  1  1.00297998  0.98200814  0.31163560  1
  C  C25  1  0.00419028  0.49697443  0.18837341  1
  C  C26  1  0.50307872  0.99899587  0.20452760  1
  C  C27  1  0.50675197  0.49811272  0.31046531  1
  C  C28  1  0.99805375  -0.00373326  0.50263866  1
  C  C29  1  0.99631774  0.49669014  0.40732625  1
  C  C30  1  0.49890751  0.99382727  0.41020026  1
  C  C31  1  0.49666227  0.49816049  0.50879656  1
  C  C32  1  1.00311410  -0.01609495  0.70958179  1
  C  C33  1  0.98809360  0.49860574  0.60711896  1
  C  C34  1  0.50255079  1.00075671  0.59954591  1
  C  C35  1  0.47887693  0.50030899  0.68803330  1
  C  C36  1  1.00146684  -0.00505571  0.88864353  1
  C  C37  1  0.00121108  0.48895843  0.79036304  1
  C  C38  1  0.50304488  0.00067020  0.79843633  1
  C  C39  1  0.49977743  0.49923187  0.89310102  1
