# generated using pymatgen
data_HfTiVCrMoC5
_symmetry_space_group_name_H-M   'P 1'
_cell_length_a   4.35737553
_cell_length_b   4.35900347
_cell_length_c   21.56167266
_cell_angle_alpha   90.06789459
_cell_angle_beta   90.04432643
_cell_angle_gamma   90.00044665
_symmetry_Int_Tables_number   1
_chemical_formula_structural   HfTiVCrMoC5
_chemical_formula_sum   'Hf4 Ti4 V4 Cr4 Mo4 C20'
_cell_volume   409.53801269
_cell_formula_units_Z   4
loop_
 _symmetry_equiv_pos_site_id
 _symmetry_equiv_pos_as_xyz
  1  'x, y, z'
loop_
 _atom_site_type_symbol
 _atom_site_label
 _atom_site_symmetry_multiplicity
 _atom_site_fract_x
 _atom_site_fract_y
 _atom_site_fract_z
 _atom_site_occupancy
  Hf  Hf0  1  -0.00302330  0.50224150  0.10187286  1
  Hf  Hf1  1  1.00175251  0.00406816  0.40180757  1
  Hf  Hf2  1  -0.00193710  0.49916025  0.89503721  1
  Hf  Hf3  1  0.49791192  0.99765598  0.89648109  1
  Ti  Ti4  1  0.99848152  0.00022447  0.00025605  1
  Ti  Ti5  1  0.50161664  1.00085847  0.10123476  1
  Ti  Ti6  1  -0.00035026  0.49944091  0.30169513  1
  Ti  Ti7  1  0.49627138  1.00509605  0.50375513  1
  V  V8  1  0.50760765  -0.01604888  0.29816817  1
  V  V9  1  0.50088587  0.50778788  0.40106025  1
  V  V10  1  0.49808376  0.50554300  0.60385376  1
  V  V11  1  -0.00899838  -0.00557729  0.78965498  1
  Cr  Cr12  1  0.49946929  0.49826463  1.00199659  1
  Cr  Cr13  1  0.48296693  0.51726184  0.20883397  1
  Cr  Cr14  1  0.97353082  0.47136167  0.69735531  1
  Cr  Cr15  1  0.53192581  0.02811353  0.69640862  1
  Mo  Mo16  1  0.03941568  1.01310320  0.20509505  1
  Mo  Mo17  1  0.97085826  0.51102662  0.50871400  1
  Mo  Mo18  1  -0.01768445  0.97186619  0.60595576  1
  Mo  Mo19  1  0.48901647  0.48748422  0.78632528  1
  C  C20  1  0.99941045  0.00147126  0.10224836  1
  C  C21  1  -0.00345147  0.50007732  -0.00142769  1
  C  C22  1  0.49868547  1.00063857  1.00262889  1
  C  C23  1  0.49749179  0.50050741  0.09899642  1
  C  C24  1  -0.00632738  0.00060720  0.29949488  1
  C  C25  1  0.00959781  0.49621419  0.20553503  1
  C  C26  1  0.50991904  0.98827752  0.20398295  1
  C  C27  1  0.49976055  0.50706150  0.30099484  1
  C  C28  1  0.00048531  0.00455503  0.50741298  1
  C  C29  1  1.00541279  0.50306549  0.40389543  1
  C  C30  1  0.50143166  1.00013468  0.39883825  1
  C  C31  1  0.50022205  0.50185954  0.50061775  1
  C  C32  1  1.00474637  0.00230084  0.69975104  1
  C  C33  1  0.01178634  0.49462101  0.60462942  1
  C  C34  1  0.50036178  -0.00129432  0.60340632  1
  C  C35  1  0.50383224  0.49738316  0.69398347  1
  C  C36  1  -0.00114610  0.99957661  0.89122978  1
  C  C37  1  0.00463602  0.50832271  0.78865833  1
  C  C38  1  0.50727406  -0.00149491  0.78899902  1
  C  C39  1  0.49858373  0.49793890  0.90034535  1
