# generated using pymatgen
data_HfScTiCrMoC5
_symmetry_space_group_name_H-M   'P 1'
_cell_length_a   4.44057315
_cell_length_b   4.43938445
_cell_length_c   21.98825794
_cell_angle_alpha   89.95521736
_cell_angle_beta   90.17002011
_cell_angle_gamma   89.95868426
_symmetry_Int_Tables_number   1
_chemical_formula_structural   HfScTiCrMoC5
_chemical_formula_sum   'Hf4 Sc4 Ti4 Cr4 Mo4 C20'
_cell_volume   433.46142048
_cell_formula_units_Z   4
loop_
 _symmetry_equiv_pos_site_id
 _symmetry_equiv_pos_as_xyz
  1  'x, y, z'
loop_
 _atom_site_type_symbol
 _atom_site_label
 _atom_site_symmetry_multiplicity
 _atom_site_fract_x
 _atom_site_fract_y
 _atom_site_fract_z
 _atom_site_occupancy
  Hf  Hf0  1  0.48906516  0.50275477  0.19507624  1
  Hf  Hf1  1  -0.00025973  0.00476541  0.39225565  1
  Hf  Hf2  1  0.00191647  0.50056242  0.49963917  1
  Hf  Hf3  1  0.99506345  -0.00279629  0.80642144  1
  Sc  Sc4  1  1.01680036  0.99448685  0.00132055  1
  Sc  Sc5  1  0.50115772  1.00078553  0.49873787  1
  Sc  Sc6  1  1.00188551  0.00023474  0.60535039  1
  Sc  Sc7  1  0.50476905  0.49985611  0.60693376  1
  Ti  Ti8  1  0.99319577  -0.00168225  0.19607596  1
  Ti  Ti9  1  0.99547839  0.49890032  0.29235558  1
  Ti  Ti10  1  0.50267649  -0.00123227  0.70702778  1
  Ti  Ti11  1  0.50061661  1.00026432  0.90255653  1
  Cr  Cr12  1  -0.03191445  0.47540936  0.09685138  1
  Cr  Cr13  1  0.48015581  0.01249748  0.29354748  1
  Cr  Cr14  1  0.97111515  0.48443879  0.90295273  1
  Cr  Cr15  1  0.47697218  0.48631573  0.80819838  1
  Mo  Mo16  1  0.52789525  0.01797851  0.09596188  1
  Mo  Mo17  1  0.53648362  0.50524741  0.99764077  1
  Mo  Mo18  1  0.50690246  0.51923107  0.38986150  1
  Mo  Mo19  1  0.02342746  0.50526859  0.70621711  1
  C  C20  1  -0.00282623  0.01944593  0.10156654  1
  C  C21  1  1.00017408  0.49490581  -0.00109114  1
  C  C22  1  0.50919982  0.99141131  1.00117388  1
  C  C23  1  0.50232258  0.49747371  0.09213166  1
  C  C24  1  0.01108996  -0.00134922  0.29076060  1
  C  C25  1  0.98932307  0.50157716  0.19069054  1
  C  C26  1  0.49366601  1.00092984  0.19877473  1
  C  C27  1  0.49499426  0.48334065  0.29679829  1
  C  C28  1  1.00129632  -0.00008705  0.49722688  1
  C  C29  1  0.99163986  0.50268574  0.39169365  1
  C  C30  1  0.49841575  0.99412118  0.38538388  1
  C  C31  1  0.50031081  0.49884046  0.49280995  1
  C  C32  1  0.99753550  -0.00662974  0.70692813  1
  C  C33  1  1.00359550  0.49925088  0.61106357  1
  C  C34  1  0.50141239  0.99993238  0.61135135  1
  C  C35  1  0.49396550  0.49942879  0.71697951  1
  C  C36  1  0.99877000  0.01299852  0.90411730  1
  C  C37  1  0.00940620  0.49797692  0.81099662  1
  C  C38  1  0.49521186  1.01172983  0.80642457  1
  C  C39  1  0.51519545  0.50213494  0.89947885  1
