# generated using pymatgen
data_HfTiCrCoMoC5
_symmetry_space_group_name_H-M   'P 1'
_cell_length_a   4.34113062
_cell_length_b   4.38340066
_cell_length_c   21.20864017
_cell_angle_alpha   89.89166559
_cell_angle_beta   89.89061990
_cell_angle_gamma   89.99526632
_symmetry_Int_Tables_number   1
_chemical_formula_structural   HfTiCrCoMoC5
_chemical_formula_sum   'Hf4 Ti4 Cr4 Co4 Mo4 C20'
_cell_volume   403.57594897
_cell_formula_units_Z   4
loop_
 _symmetry_equiv_pos_site_id
 _symmetry_equiv_pos_as_xyz
  1  'x, y, z'
loop_
 _atom_site_type_symbol
 _atom_site_label
 _atom_site_symmetry_multiplicity
 _atom_site_fract_x
 _atom_site_fract_y
 _atom_site_fract_z
 _atom_site_occupancy
  Hf  Hf0  1  0.49971332  -0.00992997  0.10415174  1
  Hf  Hf1  1  0.99428404  0.49777530  0.49638881  1
  Hf  Hf2  1  -0.00749526  1.00484825  0.60047946  1
  Hf  Hf3  1  0.00529464  0.50980448  0.89639247  1
  Ti  Ti4  1  1.00068564  0.49233030  0.10460866  1
  Ti  Ti5  1  0.50186542  0.49743130  -0.00167067  1
  Ti  Ti6  1  1.00230142  0.48497314  0.30213929  1
  Ti  Ti7  1  0.49399148  0.00094578  0.49180947  1
  Cr  Cr8  1  0.52191407  1.03173845  0.30367485  1
  Cr  Cr9  1  0.52334820  0.47096452  0.20810978  1
  Cr  Cr10  1  0.50972097  1.01402768  0.89705621  1
  Cr  Cr11  1  0.51947845  0.51112908  0.79670991  1
  Co  Co12  1  0.98342831  0.96081061  0.39607916  1
  Co  Co13  1  0.48611616  0.55385093  0.39457494  1
  Co  Co14  1  0.94967443  0.53321373  0.69895274  1
  Co  Co15  1  0.47347880  0.52456479  0.61093963  1
  Mo  Mo16  1  0.01333721  0.01566269  0.99758407  1
  Mo  Mo17  1  0.99144907  0.97805484  0.21177896  1
  Mo  Mo18  1  0.49408258  0.01703779  0.70334969  1
  Mo  Mo19  1  0.00948233  0.02964267  0.79754419  1
  C  C20  1  0.99999837  0.99231223  0.10280569  1
  C  C21  1  1.00029709  0.49620755  0.00321729  1
  C  C22  1  0.49775169  0.99473477  0.99257466  1
  C  C23  1  0.50031129  0.49100059  0.10728199  1
  C  C24  1  0.99887690  -0.00071684  0.30711072  1
  C  C25  1  -0.00590916  0.49922912  0.20308530  1
  C  C26  1  0.49803656  0.00431502  0.21041966  1
  C  C27  1  0.50286145  0.49113835  0.30239022  1
  C  C28  1  0.99375917  1.00151430  0.49065753  1
  C  C29  1  0.02251581  0.53920479  0.39482652  1
  C  C30  1  0.51654971  0.97065216  0.39285163  1
  C  C31  1  0.49543068  0.49549961  0.48783716  1
  C  C32  1  0.99652073  0.96800648  0.70343718  1
  C  C33  1  0.00829264  0.50112274  0.60954159  1
  C  C34  1  0.49281031  0.97044628  0.59960790  1
  C  C35  1  0.52061857  0.48970012  0.69881104  1
  C  C36  1  -0.00893964  0.00545225  0.89893529  1
  C  C37  1  -0.00355204  0.49877341  0.78850328  1
  C  C38  1  0.50068872  0.97900510  0.80299714  1
  C  C39  1  0.50464214  0.49052925  0.89274506  1
