# generated using pymatgen
data_HfTiCrNiMoC5
_symmetry_space_group_name_H-M   'P 1'
_cell_length_a   4.36354411
_cell_length_b   4.35925705
_cell_length_c   21.35017507
_cell_angle_alpha   90.02204209
_cell_angle_beta   90.03781194
_cell_angle_gamma   90.01781550
_symmetry_Int_Tables_number   1
_chemical_formula_structural   HfTiCrNiMoC5
_chemical_formula_sum   'Hf4 Ti4 Cr4 Ni4 Mo4 C20'
_cell_volume   406.11884536
_cell_formula_units_Z   4
loop_
 _symmetry_equiv_pos_site_id
 _symmetry_equiv_pos_as_xyz
  1  'x, y, z'
loop_
 _atom_site_type_symbol
 _atom_site_label
 _atom_site_symmetry_multiplicity
 _atom_site_fract_x
 _atom_site_fract_y
 _atom_site_fract_z
 _atom_site_occupancy
  Hf  Hf0  1  0.49542386  -0.00833164  0.09937963  1
  Hf  Hf1  1  0.49688865  0.49512520  0.20463252  1
  Hf  Hf2  1  0.98975550  0.49848622  0.50829222  1
  Hf  Hf3  1  0.50546446  -0.00318198  0.89246091  1
  Ti  Ti4  1  -0.00181605  0.99620134  0.20354772  1
  Ti  Ti5  1  -0.00418694  0.00144392  0.39791051  1
  Ti  Ti6  1  0.49107670  0.00016740  0.50589638  1
  Ti  Ti7  1  0.00377587  0.50239190  0.89633592  1
  Cr  Cr8  1  0.00974305  0.02742659  -0.00108987  1
  Cr  Cr9  1  0.99944646  0.47997280  0.09569006  1
  Cr  Cr10  1  0.52756730  0.99585823  0.30472949  1
  Cr  Cr11  1  0.02613610  0.03233419  0.79547288  1
  Ni  Ni12  1  -0.00748314  0.50041896  0.30047110  1
  Ni  Ni13  1  0.00664729  -0.00320725  0.60287362  1
  Ni  Ni14  1  0.48689618  0.50079725  0.60345603  1
  Ni  Ni15  1  0.48578871  0.49132586  0.79747027  1
  Mo  Mo16  1  0.53248669  0.48062765  0.99749973  1
  Mo  Mo17  1  0.47913418  0.51154980  0.39691008  1
  Mo  Mo18  1  0.03463060  0.52111597  0.70271959  1
  Mo  Mo19  1  0.52812610  1.00587284  0.69553780  1
  C  C20  1  0.99573438  1.01036642  0.09404970  1
  C  C21  1  0.00169923  0.49515350  0.00224347  1
  C  C22  1  0.48829613  1.00098616  0.99719392  1
  C  C23  1  0.49035493  0.49552248  0.09512596  1
  C  C24  1  0.97975551  -0.00073913  0.30028176  1
  C  C25  1  0.99697277  0.49809375  0.19326643  1
  C  C26  1  0.49543504  0.99543603  0.20894721  1
  C  C27  1  0.49948607  0.49850133  0.30523734  1
  C  C28  1  0.99164441  -0.00142266  0.50284568  1
  C  C29  1  0.00035695  0.49987622  0.39716882  1
  C  C30  1  0.49653787  1.00109000  0.39895873  1
  C  C31  1  0.49135742  0.49827093  0.50373092  1
  C  C32  1  1.00799589  1.00398635  0.70293318  1
  C  C33  1  -0.00494643  0.49507437  0.60997563  1
  C  C34  1  0.49032497  -0.00088862  0.60244309  1
  C  C35  1  0.51642890  0.49969620  0.69948526  1
  C  C36  1  1.00467056  0.00337025  0.89822708  1
  C  C37  1  0.99380818  0.48667354  0.79931690  1
  C  C38  1  0.48034247  -0.00394407  0.79057249  1
  C  C39  1  0.50131690  0.49912426  0.89739007  1
