# generated using pymatgen
data_HfScTiCrNiC5
_symmetry_space_group_name_H-M   'P 1'
_cell_length_a   4.41220142
_cell_length_b   4.40149808
_cell_length_c   21.76620607
_cell_angle_alpha   89.94829660
_cell_angle_beta   90.04012500
_cell_angle_gamma   89.98966248
_symmetry_Int_Tables_number   1
_chemical_formula_structural   HfScTiCrNiC5
_chemical_formula_sum   'Hf4 Sc4 Ti4 Cr4 Ni4 C20'
_cell_volume   422.70588392
_cell_formula_units_Z   4
loop_
 _symmetry_equiv_pos_site_id
 _symmetry_equiv_pos_as_xyz
  1  'x, y, z'
loop_
 _atom_site_type_symbol
 _atom_site_label
 _atom_site_symmetry_multiplicity
 _atom_site_fract_x
 _atom_site_fract_y
 _atom_site_fract_z
 _atom_site_occupancy
  Hf  Hf0  1  0.49564686  0.99731497  0.28743871  1
  Hf  Hf1  1  0.50087356  -0.00043345  0.49422487  1
  Hf  Hf2  1  1.00105853  -0.00031474  0.59901026  1
  Hf  Hf3  1  0.00071104  0.49811493  0.70534301  1
  Sc  Sc4  1  -0.00746986  0.00487588  0.00420093  1
  Sc  Sc5  1  1.00155495  0.49974115  0.49089387  1
  Sc  Sc6  1  0.50103432  0.99722165  0.70650918  1
  Sc  Sc7  1  0.50018910  0.49233200  0.81307606  1
  Ti  Ti8  1  0.49872871  0.49852846  1.00833843  1
  Ti  Ti9  1  0.99256589  0.00407538  0.19242109  1
  Ti  Ti10  1  -0.00223776  1.00203882  0.38780193  1
  Ti  Ti11  1  0.99544568  0.99474634  0.81332077  1
  Cr  Cr12  1  0.04609410  0.52418309  0.10348274  1
  Cr  Cr13  1  0.52167760  0.48703365  0.37907491  1
  Cr  Cr14  1  0.50030484  0.50029542  0.59968906  1
  Cr  Cr15  1  0.46470791  -0.03758629  0.90939841  1
  Ni  Ni16  1  0.49100053  0.99956788  0.09847781  1
  Ni  Ni17  1  0.99229232  0.50074193  0.28847183  1
  Ni  Ni18  1  0.50207336  0.49352246  0.19454565  1
  Ni  Ni19  1  1.01014472  0.51051747  0.90975150  1
  C  C20  1  0.00549453  0.97972566  0.10245055  1
  C  C21  1  0.99845383  0.50174641  1.01105803  1
  C  C22  1  0.49626625  0.00281629  0.00270720  1
  C  C23  1  0.47257262  0.49882265  0.10613659  1
  C  C24  1  -0.00358466  -0.00312848  0.29094807  1
  C  C25  1  0.99872708  0.50256992  0.19655847  1
  C  C26  1  0.49979516  1.00952278  0.18679188  1
  C  C27  1  0.49834463  0.49775172  0.29323834  1
  C  C28  1  0.00125949  0.99946389  0.48961746  1
  C  C29  1  0.97729845  0.50133184  0.38223363  1
  C  C30  1  0.49686999  0.01369903  0.39107384  1
  C  C31  1  0.50170460  0.49968165  0.50773899  1
  C  C32  1  0.00143782  0.99875561  0.70931874  1
  C  C33  1  0.00270617  0.49961424  0.60039442  1
  C  C34  1  0.50117734  0.99747796  0.59949451  1
  C  C35  1  0.50089210  0.49755204  0.69376817  1
  C  C36  1  0.03769140  1.00536431  0.90475312  1
  C  C37  1  0.99951392  0.49854570  0.81326300  1
  C  C38  1  0.50308041  -0.00475497  0.81856493  1
  C  C39  1  0.50391387  0.53563922  0.91441058  1
