# generated using pymatgen
data_HfTiVCrCoC5
_symmetry_space_group_name_H-M   'P 1'
_cell_length_a   4.27150043
_cell_length_b   4.27706191
_cell_length_c   21.24335554
_cell_angle_alpha   90.00799756
_cell_angle_beta   90.03897774
_cell_angle_gamma   89.99344132
_symmetry_Int_Tables_number   1
_chemical_formula_structural   HfTiVCrCoC5
_chemical_formula_sum   'Hf4 Ti4 V4 Cr4 Co4 C20'
_cell_volume   388.10478880
_cell_formula_units_Z   4
loop_
 _symmetry_equiv_pos_site_id
 _symmetry_equiv_pos_as_xyz
  1  'x, y, z'
loop_
 _atom_site_type_symbol
 _atom_site_label
 _atom_site_symmetry_multiplicity
 _atom_site_fract_x
 _atom_site_fract_y
 _atom_site_fract_z
 _atom_site_occupancy
  Hf  Hf0  1  0.00060582  0.00136268  0.20098353  1
  Hf  Hf1  1  0.50025950  -0.00172323  0.50022561  1
  Hf  Hf2  1  0.50252816  0.49986682  0.60758576  1
  Hf  Hf3  1  0.99427167  0.99949325  0.79682070  1
  Ti  Ti4  1  0.00118374  1.00114285  0.00041615  1
  Ti  Ti5  1  0.50030228  0.00023897  0.09818356  1
  Ti  Ti6  1  0.50170243  0.00585945  0.30245695  1
  Ti  Ti7  1  0.49828454  1.00007162  0.90067186  1
  V  V8  1  0.99195681  0.50154975  0.30572649  1
  V  V9  1  0.99387264  0.49218739  0.49523540  1
  V  V10  1  0.49423004  -0.00111799  0.70203204  1
  V  V11  1  0.98557508  0.50359588  0.90136618  1
  Cr  Cr12  1  0.98560726  0.50222331  0.09692515  1
  Cr  Cr13  1  0.48889852  0.49570459  1.00226572  1
  Cr  Cr14  1  0.49358953  0.50163241  0.19881875  1
  Cr  Cr15  1  0.01725793  0.97344772  0.39943831  1
  Co  Co16  1  0.48093584  0.51622206  0.39689572  1
  Co  Co17  1  0.00121866  -0.00171407  0.60350717  1
  Co  Co18  1  0.00382295  0.50144455  0.70972872  1
  Co  Co19  1  0.49157690  0.49691511  0.79819093  1
  C  C20  1  -0.00149015  0.99731542  0.09693002  1
  C  C21  1  0.01470396  0.50085590  1.00324120  1
  C  C22  1  0.49930582  0.00513209  -0.00012615  1
  C  C23  1  0.51168816  0.50007044  0.09993119  1
  C  C24  1  0.99865603  0.00380822  0.30749322  1
  C  C25  1  0.01721972  0.50140647  0.19671302  1
  C  C26  1  0.50097613  1.00098991  0.19942788  1
  C  C27  1  0.50438343  0.50310008  0.29624433  1
  C  C28  1  1.00020555  0.00530970  0.49462910  1
  C  C29  1  0.01334404  0.50316219  0.39627894  1
  C  C30  1  0.48978405  0.98499959  0.39654072  1
  C  C31  1  0.50623017  0.49811801  0.48998787  1
  C  C32  1  0.00143716  -0.00068065  0.68936208  1
  C  C33  1  1.00278387  0.50450964  0.58708245  1
  C  C34  1  0.50199973  1.00029284  0.60784549  1
  C  C35  1  0.49777957  0.50173922  0.71222415  1
  C  C36  1  0.99929493  0.99664943  0.90210143  1
  C  C37  1  0.00489097  0.49960314  0.80209658  1
  C  C38  1  0.49597749  0.00689153  0.79840270  1
  C  C39  1  0.51348252  0.50015753  0.90544717  1
