# generated using pymatgen
data_HfTiMnVCrC5
_symmetry_space_group_name_H-M   'P 1'
_cell_length_a   4.33967469
_cell_length_b   4.34237500
_cell_length_c   20.95354437
_cell_angle_alpha   90.27272133
_cell_angle_beta   89.91812560
_cell_angle_gamma   89.93614854
_symmetry_Int_Tables_number   1
_chemical_formula_structural   HfTiMnVCrC5
_chemical_formula_sum   'Hf4 Ti4 Mn4 V4 Cr4 C20'
_cell_volume   394.85383521
_cell_formula_units_Z   4
loop_
 _symmetry_equiv_pos_site_id
 _symmetry_equiv_pos_as_xyz
  1  'x, y, z'
loop_
 _atom_site_type_symbol
 _atom_site_label
 _atom_site_symmetry_multiplicity
 _atom_site_fract_x
 _atom_site_fract_y
 _atom_site_fract_z
 _atom_site_occupancy
  Hf  Hf0  1  1.00932147  0.98100343  0.39493471  1
  Hf  Hf1  1  1.01370666  0.48622000  0.50015703  1
  Hf  Hf2  1  1.00243161  0.00328826  0.79683055  1
  Hf  Hf3  1  0.49882149  1.00315328  0.90344176  1
  Ti  Ti4  1  0.99858457  0.51075508  0.10250489  1
  Ti  Ti5  1  0.49895801  0.50422679  1.00585366  1
  Ti  Ti6  1  0.50111450  0.48874652  0.60258556  1
  Ti  Ti7  1  -0.00158833  0.50398678  0.90309222  1
  Mn  Mn8  1  0.93594116  0.44488481  0.29522337  1
  Mn  Mn9  1  0.47009155  0.06370669  0.29084310  1
  Mn  Mn10  1  0.52378072  -0.00158800  0.49857643  1
  Mn  Mn11  1  0.94012238  0.95594942  0.60161021  1
  V  V12  1  0.50413540  0.00776011  0.10348185  1
  V  V13  1  -0.01230662  0.00880240  0.19789468  1
  V  V14  1  0.48586535  0.52656241  0.20099135  1
  V  V15  1  1.01665066  0.49137430  0.69852639  1
  Cr  Cr16  1  0.99371493  0.01101666  1.00792364  1
  Cr  Cr17  1  0.51215402  0.46556685  0.39769760  1
  Cr  Cr18  1  0.48909618  -0.01979006  0.69588018  1
  Cr  Cr19  1  0.50777204  0.50751987  0.79458891  1
  C  C20  1  0.99786276  1.01206520  0.10220276  1
  C  C21  1  0.99840144  0.50302872  0.00347340  1
  C  C22  1  0.50006681  0.00443737  1.01038942  1
  C  C23  1  0.49763925  0.50711115  0.10684145  1
  C  C24  1  1.02198692  0.02507568  0.29145467  1
  C  C25  1  -0.00270943  0.52686218  0.20502017  1
  C  C26  1  0.49629215  0.01230942  0.20133044  1
  C  C27  1  0.51461010  0.49386903  0.30187433  1
  C  C28  1  1.00330238  -0.01238160  0.50710777  1
  C  C29  1  0.01544279  0.48755122  0.38876184  1
  C  C30  1  0.50872644  -0.00444456  0.40339903  1
  C  C31  1  0.51106189  0.47762970  0.49413241  1
  C  C32  1  0.02424436  1.00945864  0.69044317  1
  C  C33  1  0.00600099  0.51632341  0.60536166  1
  C  C34  1  0.51923704  0.99416797  0.59857469  1
  C  C35  1  0.50394439  0.50018871  0.70274096  1
  C  C36  1  -0.00108087  1.00386877  0.90952865  1
  C  C37  1  0.99157151  0.50288389  0.79666358  1
  C  C38  1  0.50275243  0.99538780  0.79151018  1
  C  C39  1  0.49779184  0.50294784  0.89644981  1
