# generated using pymatgen
data_HfMgTiVCrC5
_symmetry_space_group_name_H-M   'P 1'
_cell_length_a   4.33990334
_cell_length_b   4.34678730
_cell_length_c   21.72018143
_cell_angle_alpha   89.99353805
_cell_angle_beta   90.04041226
_cell_angle_gamma   90.00565847
_symmetry_Int_Tables_number   1
_chemical_formula_structural   HfMgTiVCrC5
_chemical_formula_sum   'Hf4 Mg4 Ti4 V4 Cr4 C20'
_cell_volume   409.74322574
_cell_formula_units_Z   4
loop_
 _symmetry_equiv_pos_site_id
 _symmetry_equiv_pos_as_xyz
  1  'x, y, z'
loop_
 _atom_site_type_symbol
 _atom_site_label
 _atom_site_symmetry_multiplicity
 _atom_site_fract_x
 _atom_site_fract_y
 _atom_site_fract_z
 _atom_site_occupancy
  Hf  Hf0  1  0.49993309  0.50013178  0.19725900  1
  Hf  Hf1  1  0.49777335  0.50049786  0.40020464  1
  Hf  Hf2  1  0.50227329  0.49923192  0.60260091  1
  Hf  Hf3  1  0.00170179  0.00154465  0.80133273  1
  Mg  Mg4  1  -0.00098999  0.00101252  1.00342333  1
  Mg  Mg5  1  0.49612191  0.49719599  -0.00072476  1
  Mg  Mg6  1  -0.00760715  0.49932833  0.29883720  1
  Mg  Mg7  1  0.99774488  0.99842458  0.40039891  1
  Ti  Ti8  1  1.00022509  0.50088022  0.09445369  1
  Ti  Ti9  1  0.50061881  -0.00081774  0.50115043  1
  Ti  Ti10  1  0.00029644  0.50103614  0.70072528  1
  Ti  Ti11  1  0.50067609  0.50136657  0.80241094  1
  V  V12  1  0.47856531  0.99488418  0.29693143  1
  V  V13  1  1.00742389  0.99243317  0.60111790  1
  V  V14  1  0.99206910  0.50537651  0.90774261  1
  V  V15  1  0.50420851  0.99462669  0.91115344  1
  Cr  Cr16  1  0.48675847  -0.00156594  0.09604318  1
  Cr  Cr17  1  0.99788784  0.00335700  0.19489251  1
  Cr  Cr18  1  0.99899926  0.47747872  0.50310562  1
  Cr  Cr19  1  0.51410908  1.01134606  0.70088778  1
  C  C20  1  0.02157189  0.00002009  0.10463799  1
  C  C21  1  0.99737588  0.50046830  -0.00527050  1
  C  C22  1  0.49992489  -0.00169990  0.99876072  1
  C  C23  1  0.50291577  0.50216752  0.09576790  1
  C  C24  1  0.02317904  0.00028684  0.28534852  1
  C  C25  1  0.00019817  0.49522465  0.19230671  1
  C  C26  1  0.51475351  1.00019466  0.19241007  1
  C  C27  1  0.49505737  0.51040589  0.29839061  1
  C  C28  1  -0.00209444  1.01561858  0.51033140  1
  C  C29  1  -0.00224216  0.50024718  0.41493218  1
  C  C30  1  0.49896472  1.00119515  0.39270567  1
  C  C31  1  0.49896266  0.49892082  0.50193405  1
  C  C32  1  0.98415831  0.00133622  0.69425201  1
  C  C33  1  1.00181657  0.50802063  0.59855211  1
  C  C34  1  0.49545591  -0.00078928  0.60541436  1
  C  C35  1  0.49946898  0.48973949  0.70498450  1
  C  C36  1  0.99620481  0.99673401  0.90299080  1
  C  C37  1  1.00247565  0.50107755  0.80206346  1
  C  C38  1  0.50113749  0.00001988  0.79639992  1
  C  C39  1  0.50289776  0.50168343  0.89916140  1
