# generated using pymatgen
data_HfTiVCrNiC5
_symmetry_space_group_name_H-M   'P 1'
_cell_length_a   4.29103854
_cell_length_b   4.30837593
_cell_length_c   21.27225277
_cell_angle_alpha   89.95388885
_cell_angle_beta   90.06950693
_cell_angle_gamma   89.99873021
_symmetry_Int_Tables_number   1
_chemical_formula_structural   HfTiVCrNiC5
_chemical_formula_sum   'Hf4 Ti4 V4 Cr4 Ni4 C20'
_cell_volume   393.26838155
_cell_formula_units_Z   4
loop_
 _symmetry_equiv_pos_site_id
 _symmetry_equiv_pos_as_xyz
  1  'x, y, z'
loop_
 _atom_site_type_symbol
 _atom_site_label
 _atom_site_symmetry_multiplicity
 _atom_site_fract_x
 _atom_site_fract_y
 _atom_site_fract_z
 _atom_site_occupancy
  Hf  Hf0  1  0.49842616  0.50176335  0.00593592  1
  Hf  Hf1  1  0.49778808  0.00353742  0.69441385  1
  Hf  Hf2  1  0.49733929  0.50288193  0.58882783  1
  Hf  Hf3  1  0.49737104  0.50286196  0.80306672  1
  Ti  Ti4  1  1.00048932  0.50129589  0.10804040  1
  Ti  Ti5  1  0.50050843  0.00196652  0.10750400  1
  Ti  Ti6  1  1.00402722  1.00051388  0.20598180  1
  Ti  Ti7  1  -0.00472576  0.50411285  0.48851334  1
  V  V8  1  0.51120917  0.98212181  0.30037870  1
  V  V9  1  0.48638185  0.48226007  0.39207225  1
  V  V10  1  0.99747748  0.50261816  0.70031577  1
  V  V11  1  0.99033465  0.47913816  0.90414659  1
  Cr  Cr12  1  -0.00467077  1.00267007  1.00062030  1
  Cr  Cr13  1  1.01698715  1.01621848  0.39418212  1
  Cr  Cr14  1  0.99878120  0.00640777  0.80938954  1
  Cr  Cr15  1  0.52880283  1.00259308  0.90569059  1
  Ni  Ni16  1  0.99819885  0.49809555  0.29948609  1
  Ni  Ni17  1  0.50224624  0.50064768  0.20863348  1
  Ni  Ni18  1  0.49619476  1.00406040  0.48865682  1
  Ni  Ni19  1  -0.00391141  0.00468709  0.57623866  1
  C  C20  1  0.00068843  1.00125732  0.09898073  1
  C  C21  1  1.00033480  0.50158949  1.00109247  1
  C  C22  1  0.50684581  1.00111817  0.00075114  1
  C  C23  1  0.50116120  0.50141224  0.11283169  1
  C  C24  1  0.99880489  0.99176005  0.30370759  1
  C  C25  1  1.00253743  0.49748079  0.20735362  1
  C  C26  1  0.50268079  0.00086067  0.20689849  1
  C  C27  1  0.50323588  0.50284573  0.29891796  1
  C  C28  1  -0.00508161  1.00151282  0.48780783  1
  C  C29  1  -0.00115818  0.48857722  0.39055493  1
  C  C30  1  0.48973236  0.99858583  0.39456750  1
  C  C31  1  0.49819761  0.50677226  0.48424024  1
  C  C32  1  0.99794599  0.00222128  0.71818525  1
  C  C33  1  -0.00262462  0.49776388  0.60152166  1
  C  C34  1  0.49632331  1.00256987  0.58502655  1
  C  C35  1  0.49960546  0.50351571  0.69705892  1
  C  C36  1  -0.00246077  0.00426986  0.90585464  1
  C  C37  1  0.99855359  0.49081694  0.80598943  1
  C  C38  1  0.49684959  1.00116871  0.81219496  1
  C  C39  1  0.50927691  0.49767425  0.90450262  1
