# generated using pymatgen
data_HfScTiVCrC5
_symmetry_space_group_name_H-M   'P 1'
_cell_length_a   4.39810353
_cell_length_b   4.40591132
_cell_length_c   21.77495512
_cell_angle_alpha   90.02611088
_cell_angle_beta   90.01436859
_cell_angle_gamma   89.99595634
_symmetry_Int_Tables_number   1
_chemical_formula_structural   HfScTiVCrC5
_chemical_formula_sum   'Hf4 Sc4 Ti4 V4 Cr4 C20'
_cell_volume   421.94749044
_cell_formula_units_Z   4
loop_
 _symmetry_equiv_pos_site_id
 _symmetry_equiv_pos_as_xyz
  1  'x, y, z'
loop_
 _atom_site_type_symbol
 _atom_site_label
 _atom_site_symmetry_multiplicity
 _atom_site_fract_x
 _atom_site_fract_y
 _atom_site_fract_z
 _atom_site_occupancy
  Hf  Hf0  1  0.00310168  1.00282806  1.00374313  1
  Hf  Hf1  1  0.99844352  0.49319228  0.29477819  1
  Hf  Hf2  1  -0.00020473  0.99921752  0.60283003  1
  Hf  Hf3  1  0.99862552  0.49997840  0.70614011  1
  Sc  Sc4  1  0.50240457  0.50115808  1.00140528  1
  Sc  Sc5  1  0.00087627  -0.00526965  0.39361184  1
  Sc  Sc6  1  0.50038230  -0.00065323  0.49477047  1
  Sc  Sc7  1  0.49954861  0.49910426  0.60120812  1
  Ti  Ti8  1  0.49707976  0.49724750  0.19724559  1
  Ti  Ti9  1  1.00072219  0.49874474  0.49378423  1
  Ti  Ti10  1  1.00251864  1.00118463  0.80445779  1
  Ti  Ti11  1  1.00163040  0.50071696  0.90031250  1
  V  V12  1  0.99688463  0.51871121  0.10435647  1
  V  V13  1  0.49791940  0.99023437  0.10582513  1
  V  V14  1  0.49474525  -0.01372277  0.29305629  1
  V  V15  1  0.50828335  0.00719928  0.89740548  1
  Cr  Cr16  1  -0.02627864  0.00345176  0.19515024  1
  Cr  Cr17  1  0.50187652  0.47908165  0.39497238  1
  Cr  Cr18  1  0.49958565  1.00567601  0.70943703  1
  Cr  Cr19  1  0.49735804  0.52617949  0.80451107  1
  C  C20  1  0.01036944  -0.00598084  0.10687069  1
  C  C21  1  0.00270219  0.50199282  1.00691061  1
  C  C22  1  0.50270355  1.00191345  1.00070907  1
  C  C23  1  0.50658759  0.51142495  0.10404375  1
  C  C24  1  1.00380090  0.99310991  0.28589983  1
  C  C25  1  -0.00203754  0.48905536  0.19322326  1
  C  C26  1  0.51243662  0.00111700  0.19882017  1
  C  C27  1  0.49846561  0.51001460  0.29912679  1
  C  C28  1  0.00016530  -0.00107705  0.49905650  1
  C  C29  1  0.99632601  0.49627512  0.39786348  1
  C  C30  1  0.50136719  1.02989502  0.38353717  1
  C  C31  1  0.49901076  0.50141134  0.48619455  1
  C  C32  1  -0.00268873  1.00011861  0.70827318  1
  C  C33  1  0.99953407  0.49919628  0.59709250  1
  C  C34  1  0.49963239  0.99861301  0.61572013  1
  C  C35  1  0.49906185  0.48896060  0.71374746  1
  C  C36  1  -0.00699312  1.00090519  0.90032855  1
  C  C37  1  0.00406416  0.50244824  0.80684249  1
  C  C38  1  0.50116601  0.98500658  0.80193970  1
  C  C39  1  0.50074587  0.49064779  0.89440178  1
