# generated using pymatgen
data_HfMgScTiCoC5
_symmetry_space_group_name_H-M   'P 1'
_cell_length_a   4.56699088
_cell_length_b   4.54031143
_cell_length_c   21.74274305
_cell_angle_alpha   90.33956698
_cell_angle_beta   88.18116084
_cell_angle_gamma   89.91894077
_symmetry_Int_Tables_number   1
_chemical_formula_structural   HfMgScTiCoC5
_chemical_formula_sum   'Hf4 Mg4 Sc4 Ti4 Co4 C20'
_cell_volume   450.61233155
_cell_formula_units_Z   4
loop_
 _symmetry_equiv_pos_site_id
 _symmetry_equiv_pos_as_xyz
  1  'x, y, z'
loop_
 _atom_site_type_symbol
 _atom_site_label
 _atom_site_symmetry_multiplicity
 _atom_site_fract_x
 _atom_site_fract_y
 _atom_site_fract_z
 _atom_site_occupancy
  Hf  Hf0  1  0.03990086  0.98695662  0.00107732  1
  Hf  Hf1  1  0.54196246  0.48681641  0.00448011  1
  Hf  Hf2  1  -0.01473658  -0.00644979  0.20033098  1
  Hf  Hf3  1  -0.10670671  0.52731880  0.70063996  1
  Mg  Mg4  1  0.48103173  1.00446652  0.29656735  1
  Mg  Mg5  1  0.45025136  1.00723004  0.49938366  1
  Mg  Mg6  1  0.39007466  0.00585471  0.69968856  1
  Mg  Mg7  1  1.05802928  0.49676314  0.90094039  1
  Sc  Sc8  1  -0.01431796  0.50098626  0.29882277  1
  Sc  Sc9  1  0.92931103  1.01138131  0.59745733  1
  Sc  Sc10  1  0.42889619  0.50927351  0.59485742  1
  Sc  Sc11  1  0.55916967  -0.02506570  0.89660798  1
  Ti  Ti12  1  1.04215928  0.48539452  0.10411390  1
  Ti  Ti13  1  -0.03023088  1.00479059  0.39854088  1
  Ti  Ti14  1  0.94655167  0.50777023  0.49646798  1
  Ti  Ti15  1  0.46814867  0.50522482  0.39910863  1
  Co  Co16  1  0.48165841  0.02856024  0.10231373  1
  Co  Co17  1  0.52562529  0.53356073  0.20120407  1
  Co  Co18  1  0.06978826  1.07892087  0.81197997  1
  Co  Co19  1  0.57114751  0.44001780  0.81706285  1
  C  C20  1  1.07135443  -0.01420380  0.09999512  1
  C  C21  1  0.03820991  0.48872728  0.00509176  1
  C  C22  1  0.54070138  -0.01342123  1.00801986  1
  C  C23  1  0.51881740  0.42981550  0.11175075  1
  C  C24  1  0.98193154  0.00283400  0.30224039  1
  C  C25  1  0.94797287  0.49090403  0.19588456  1
  C  C26  1  0.49215310  0.92833686  0.18923086  1
  C  C27  1  0.48416222  0.50577413  0.28769299  1
  C  C28  1  -0.04849634  0.00730502  0.49503134  1
  C  C29  1  0.96927908  0.50527762  0.40207221  1
  C  C30  1  0.47062720  1.00520884  0.39660388  1
  C  C31  1  0.45323657  0.50715889  0.49205241  1
  C  C32  1  -0.10312662  1.00400718  0.72394550  1
  C  C33  1  -0.06944514  0.51031274  0.60067013  1
  C  C34  1  0.42900322  0.01046745  0.60408146  1
  C  C35  1  0.40922381  0.53974798  0.73017201  1
  C  C36  1  0.06231401  0.99074201  0.89208400  1
  C  C37  1  0.23753904  0.39765576  0.77251594  1
  C  C38  1  0.73520444  0.13038767  0.77127338  1
  C  C39  1  0.56042748  0.48006771  0.89850171  1
