# generated using pymatgen
data_HfMgTiCoNiC5
_symmetry_space_group_name_H-M   'P 1'
_cell_length_a   4.41253709
_cell_length_b   4.42766464
_cell_length_c   21.42935468
_cell_angle_alpha   90.63944112
_cell_angle_beta   90.61022546
_cell_angle_gamma   89.62914162
_symmetry_Int_Tables_number   1
_chemical_formula_structural   HfMgTiCoNiC5
_chemical_formula_sum   'Hf4 Mg4 Ti4 Co4 Ni4 C20'
_cell_volume   418.61205806
_cell_formula_units_Z   4
loop_
 _symmetry_equiv_pos_site_id
 _symmetry_equiv_pos_as_xyz
  1  'x, y, z'
loop_
 _atom_site_type_symbol
 _atom_site_label
 _atom_site_symmetry_multiplicity
 _atom_site_fract_x
 _atom_site_fract_y
 _atom_site_fract_z
 _atom_site_occupancy
  Hf  Hf0  1  0.03849531  -0.03527568  0.39081939  1
  Hf  Hf1  1  0.99211049  0.47817025  0.50387933  1
  Hf  Hf2  1  -0.01407132  -0.01127430  0.60685726  1
  Hf  Hf3  1  0.48706493  0.50885139  0.79610139  1
  Mg  Mg4  1  0.50409814  0.51666428  0.00072852  1
  Mg  Mg5  1  0.48888107  0.54842749  0.20149444  1
  Mg  Mg6  1  0.48792806  0.00587385  0.70020487  1
  Mg  Mg7  1  0.99742210  0.51108285  0.90381313  1
  Ti  Ti8  1  -0.00048175  0.51789874  0.09826541  1
  Ti  Ti9  1  -0.00337691  1.03142682  0.18972055  1
  Ti  Ti10  1  0.98886958  1.00797043  0.80106091  1
  Ti  Ti11  1  0.49714528  0.01218170  0.90641077  1
  Co  Co12  1  0.03683627  -0.01533281  1.00245771  1
  Co  Co13  1  0.49320870  0.07167586  0.27978803  1
  Co  Co14  1  0.47121256  0.95718671  0.51095214  1
  Co  Co15  1  0.50777995  0.50922146  0.60354478  1
  Ni  Ni16  1  0.48279033  0.04077248  0.09810422  1
  Ni  Ni17  1  -0.04817403  0.51151367  0.28485268  1
  Ni  Ni18  1  0.50730521  0.44231009  0.42797717  1
  Ni  Ni19  1  0.98061491  0.49840036  0.69974771  1
  C  C20  1  1.00237489  1.02033783  0.09335534  1
  C  C21  1  -0.00043082  0.57756711  0.00572100  1
  C  C22  1  0.44970203  1.02165673  0.00731055  1
  C  C23  1  0.49893322  0.50124148  0.10154830  1
  C  C24  1  0.18768264  0.83255225  0.27978883  1
  C  C25  1  0.98982349  0.52198777  0.19931191  1
  C  C26  1  0.51154479  0.04671909  0.19473688  1
  C  C27  1  0.68447360  0.31794264  0.34384661  1
  C  C28  1  1.02353907  0.97781475  0.49486018  1
  C  C29  1  0.88472323  0.49492161  0.38054547  1
  C  C30  1  0.50781467  0.09921008  0.37245219  1
  C  C31  1  0.49070067  0.48830304  0.51350048  1
  C  C32  1  0.98666771  -0.00078901  0.70809242  1
  C  C33  1  0.95813294  0.48719926  0.60838176  1
  C  C34  1  0.48615482  0.96386079  0.59386625  1
  C  C35  1  0.47510882  0.50327780  0.68633995  1
  C  C36  1  0.99390829  0.01270190  0.91160065  1
  C  C37  1  -0.01242220  0.50659681  0.79255311  1
  C  C38  1  0.48781471  0.00835695  0.80594811  1
  C  C39  1  0.49726887  0.50778102  0.89949299  1
