# generated using pymatgen
data_HfMgTiMnCoC5
_symmetry_space_group_name_H-M   'P 1'
_cell_length_a   4.37256770
_cell_length_b   4.42586711
_cell_length_c   21.59186116
_cell_angle_alpha   89.47217604
_cell_angle_beta   90.17304965
_cell_angle_gamma   89.88103030
_symmetry_Int_Tables_number   1
_chemical_formula_structural   HfMgTiMnCoC5
_chemical_formula_sum   'Hf4 Mg4 Ti4 Mn4 Co4 C20'
_cell_volume   417.83384887
_cell_formula_units_Z   4
loop_
 _symmetry_equiv_pos_site_id
 _symmetry_equiv_pos_as_xyz
  1  'x, y, z'
loop_
 _atom_site_type_symbol
 _atom_site_label
 _atom_site_symmetry_multiplicity
 _atom_site_fract_x
 _atom_site_fract_y
 _atom_site_fract_z
 _atom_site_occupancy
  Hf  Hf0  1  0.49928770  0.52514713  0.99833393  1
  Hf  Hf1  1  0.99993429  0.01361609  0.20176097  1
  Hf  Hf2  1  -0.01170691  0.00284696  0.40409122  1
  Hf  Hf3  1  1.01617182  0.48032001  0.69317590  1
  Mg  Mg4  1  0.99849265  0.52349199  0.10421049  1
  Mg  Mg5  1  0.48031247  0.99722967  0.29937892  1
  Mg  Mg6  1  0.49577116  1.01062789  0.50127918  1
  Mg  Mg7  1  0.51104902  0.99402427  0.89731542  1
  Ti  Ti8  1  0.49688009  1.02461807  0.10157275  1
  Ti  Ti9  1  0.48786887  0.50230101  0.40125481  1
  Ti  Ti10  1  0.51607922  -0.01374334  0.69638483  1
  Ti  Ti11  1  0.51439976  0.48544617  0.79915105  1
  Mn  Mn12  1  0.93985720  0.47352835  0.29879458  1
  Mn  Mn13  1  0.02851131  0.01342802  0.59322716  1
  Mn  Mn14  1  0.53057962  0.52374729  0.59344868  1
  Mn  Mn15  1  0.04674818  0.94889883  0.78581729  1
  Co  Co16  1  0.98655860  1.03906021  1.01266458  1
  Co  Co17  1  0.50058978  0.51302427  0.20052627  1
  Co  Co18  1  0.94850770  0.52473328  0.50148576  1
  Co  Co19  1  1.03502406  0.51697324  0.88611637  1
  C  C20  1  0.00180668  0.02319805  0.09508085  1
  C  C21  1  0.99941936  0.59405480  -0.01898203  1
  C  C22  1  0.52064301  0.03386419  0.00475567  1
  C  C23  1  0.49859826  0.52323464  0.10898711  1
  C  C24  1  0.98577955  1.05360940  0.30297036  1
  C  C25  1  0.02477813  0.51802156  0.21398358  1
  C  C26  1  0.50133960  0.01993357  0.19740811  1
  C  C27  1  0.52799006  0.50933347  0.29716250  1
  C  C28  1  -0.00423663  0.95711627  0.51056388  1
  C  C29  1  0.99272310  0.50207339  0.40737459  1
  C  C30  1  0.48668106  0.00092256  0.40120735  1
  C  C31  1  0.53128434  0.50181872  0.50421411  1
  C  C32  1  1.00879183  -0.01812854  0.69854553  1
  C  C33  1  0.96707937  0.43816599  0.58905788  1
  C  C34  1  0.45297898  0.93865677  0.60137511  1
  C  C35  1  0.51539202  0.48153711  0.69105529  1
  C  C36  1  0.99672796  0.83033733  0.93820534  1
  C  C37  1  1.00631372  0.52213861  0.79985630  1
  C  C38  1  0.47297110  -0.01321928  0.79452760  1
  C  C39  1  0.49173605  0.48370643  0.89252286  1
