# generated using pymatgen
data_HfMgTiMnNiC5
_symmetry_space_group_name_H-M   'P 1'
_cell_length_a   4.36807850
_cell_length_b   4.38698575
_cell_length_c   21.86269910
_cell_angle_alpha   90.05078118
_cell_angle_beta   89.93740022
_cell_angle_gamma   90.02356941
_symmetry_Int_Tables_number   1
_chemical_formula_structural   HfMgTiMnNiC5
_chemical_formula_sum   'Hf4 Mg4 Ti4 Mn4 Ni4 C20'
_cell_volume   418.94785323
_cell_formula_units_Z   4
loop_
 _symmetry_equiv_pos_site_id
 _symmetry_equiv_pos_as_xyz
  1  'x, y, z'
loop_
 _atom_site_type_symbol
 _atom_site_label
 _atom_site_symmetry_multiplicity
 _atom_site_fract_x
 _atom_site_fract_y
 _atom_site_fract_z
 _atom_site_occupancy
  Hf  Hf0  1  0.98949964  0.01683453  0.00101580  1
  Hf  Hf1  1  0.99712665  1.01954114  0.40470515  1
  Hf  Hf2  1  0.00043778  0.50190124  0.69602713  1
  Hf  Hf3  1  1.00101721  0.50037752  0.89775299  1
  Mg  Mg4  1  0.00868146  -0.00135481  0.20038873  1
  Mg  Mg5  1  0.50249279  0.47736023  0.19960393  1
  Mg  Mg6  1  -0.01200739  0.49536863  0.50064119  1
  Mg  Mg7  1  0.49755538  -0.00398460  0.89341515  1
  Ti  Ti8  1  1.00101567  0.49723308  0.10602671  1
  Ti  Ti9  1  1.00251256  0.50303785  0.29733023  1
  Ti  Ti10  1  0.50191074  0.48485975  0.59651737  1
  Ti  Ti11  1  0.99995742  -0.00002507  0.79387435  1
  Mn  Mn12  1  0.45624274  0.56046159  1.00601269  1
  Mn  Mn13  1  0.53491216  0.95219360  0.29752465  1
  Mn  Mn14  1  0.45250246  0.95219904  0.50706212  1
  Mn  Mn15  1  0.52669179  0.56769711  0.40296781  1
  Ni  Ni16  1  0.50678163  0.99451814  0.09931619  1
  Ni  Ni17  1  1.01236998  -0.00231775  0.59999571  1
  Ni  Ni18  1  0.50284438  1.00133688  0.69543128  1
  Ni  Ni19  1  0.49934293  0.50220330  0.78170436  1
  C  C20  1  0.99557087  0.99816652  0.10201356  1
  C  C21  1  0.03046839  0.51381996  0.00510388  1
  C  C22  1  0.49350712  0.97694002  1.00950643  1
  C  C23  1  0.51550320  0.46336614  0.09126392  1
  C  C24  1  0.96521911  0.01355091  0.30297574  1
  C  C25  1  0.00318119  0.49936625  0.20176511  1
  C  C26  1  0.50217013  -0.01805102  0.21662809  1
  C  C27  1  0.48967773  0.53588130  0.31341398  1
  C  C28  1  0.03452231  0.00174690  0.50970027  1
  C  C29  1  0.96028765  0.51439557  0.39893254  1
  C  C30  1  0.49547007  -0.01183285  0.40857799  1
  C  C31  1  0.49286728  0.53384920  0.49296108  1
  C  C32  1  1.00373740  0.00136004  0.69113505  1
  C  C33  1  0.00435426  0.48915643  0.59673041  1
  C  C34  1  0.51974798  -0.00578088  0.59210706  1
  C  C35  1  0.50083461  0.49898405  0.69280576  1
  C  C36  1  0.99773117  0.00038088  0.89310031  1
  C  C37  1  1.00321104  0.50036735  0.79667304  1
  C  C38  1  0.50006227  -0.00357154  0.78499153  1
  C  C39  1  0.50954721  0.48353028  0.92218997  1
