# generated using pymatgen
data_HfMgScTiMnC5
_symmetry_space_group_name_H-M   'P 1'
_cell_length_a   4.49268859
_cell_length_b   4.48725403
_cell_length_c   22.09444366
_cell_angle_alpha   89.88877222
_cell_angle_beta   90.03408739
_cell_angle_gamma   90.07690210
_symmetry_Int_Tables_number   1
_chemical_formula_structural   HfMgScTiMnC5
_chemical_formula_sum   'Hf4 Mg4 Sc4 Ti4 Mn4 C20'
_cell_volume   445.41901955
_cell_formula_units_Z   4
loop_
 _symmetry_equiv_pos_site_id
 _symmetry_equiv_pos_as_xyz
  1  'x, y, z'
loop_
 _atom_site_type_symbol
 _atom_site_label
 _atom_site_symmetry_multiplicity
 _atom_site_fract_x
 _atom_site_fract_y
 _atom_site_fract_z
 _atom_site_occupancy
  Hf  Hf0  1  0.99850943  0.50338014  0.09747191  1
  Hf  Hf1  1  0.49778257  -0.00178709  0.29994527  1
  Hf  Hf2  1  -0.00489429  0.99862874  0.60066063  1
  Hf  Hf3  1  -0.00962118  0.01069111  0.79627590  1
  Mg  Mg4  1  0.49532462  0.50432323  -0.00164206  1
  Mg  Mg5  1  0.99642228  1.00023828  0.19878762  1
  Mg  Mg6  1  1.00433525  0.49846498  0.50204581  1
  Mg  Mg7  1  0.50106378  0.49841443  0.80091439  1
  Sc  Sc8  1  0.99337614  1.00247497  -0.00199409  1
  Sc  Sc9  1  1.00144511  0.49532859  0.29892143  1
  Sc  Sc10  1  0.52136463  0.50784720  0.40290685  1
  Sc  Sc11  1  0.50405592  0.49271560  0.60254317  1
  Ti  Ti12  1  0.50009997  0.50399579  0.19732462  1
  Ti  Ti13  1  0.50119482  0.99780939  0.49907341  1
  Ti  Ti14  1  -0.00533109  0.50463224  0.90133412  1
  Ti  Ti15  1  0.49285565  0.00309222  0.89875184  1
  Mn  Mn16  1  0.46253432  1.04009470  0.09732513  1
  Mn  Mn17  1  0.04980381  1.04493865  0.40445415  1
  Mn  Mn18  1  0.05906253  0.55374516  0.70192779  1
  Mn  Mn19  1  0.45663547  0.95220356  0.70300586  1
  C  C20  1  1.04983222  0.00055905  0.09889295  1
  C  C21  1  0.99522464  0.50328638  0.99283774  1
  C  C22  1  0.49869087  0.99879634  0.01047646  1
  C  C23  1  0.50330145  0.45532044  0.10076036  1
  C  C24  1  -0.01345987  -0.01409357  0.31778244  1
  C  C25  1  -0.00329383  0.50180147  0.19742706  1
  C  C26  1  0.50063440  0.99274273  0.19056650  1
  C  C27  1  0.50108620  0.49560092  0.29399260  1
  C  C28  1  -0.01566018  -0.00908621  0.49142816  1
  C  C29  1  1.01799509  0.44859740  0.40217555  1
  C  C30  1  0.46206313  0.00406776  0.40377794  1
  C  C31  1  0.50322515  0.50043914  0.50303447  1
  C  C32  1  1.03093244  -0.02505518  0.69833634  1
  C  C33  1  0.99774736  0.49312569  0.61356318  1
  C  C34  1  0.49705861  -0.00431062  0.60615328  1
  C  C35  1  0.47273525  0.53946892  0.70315330  1
  C  C36  1  -0.00216269  0.00331813  0.89657384  1
  C  C37  1  0.99459486  0.50543380  0.78910392  1
  C  C38  1  0.49440532  0.00287432  0.79194921  1
  C  C39  1  0.49751801  0.50139672  0.89818070  1
