# generated using pymatgen
data_HfMgScTiNiC5
_symmetry_space_group_name_H-M   'P 1'
_cell_length_a   4.47759184
_cell_length_b   4.51201593
_cell_length_c   22.41584510
_cell_angle_alpha   89.62399577
_cell_angle_beta   89.94080293
_cell_angle_gamma   89.98465086
_symmetry_Int_Tables_number   1
_chemical_formula_structural   HfMgScTiNiC5
_chemical_formula_sum   'Hf4 Mg4 Sc4 Ti4 Ni4 C20'
_cell_volume   452.85654059
_cell_formula_units_Z   4
loop_
 _symmetry_equiv_pos_site_id
 _symmetry_equiv_pos_as_xyz
  1  'x, y, z'
loop_
 _atom_site_type_symbol
 _atom_site_label
 _atom_site_symmetry_multiplicity
 _atom_site_fract_x
 _atom_site_fract_y
 _atom_site_fract_z
 _atom_site_occupancy
  Hf  Hf0  1  1.00744560  0.50472219  0.30613839  1
  Hf  Hf1  1  0.50934743  1.00764728  0.30330725  1
  Hf  Hf2  1  0.00298684  0.50100184  0.50605361  1
  Hf  Hf3  1  0.50168151  0.99452255  0.89257103  1
  Mg  Mg4  1  0.48930985  0.50997737  0.19793427  1
  Mg  Mg5  1  0.00400551  0.50606169  0.70331473  1
  Mg  Mg6  1  1.00149550  0.00027043  0.79331935  1
  Mg  Mg7  1  0.50189271  0.49912550  0.79676955  1
  Sc  Sc8  1  0.00325465  -0.00613030  0.99759887  1
  Sc  Sc9  1  0.49160337  0.98771851  0.10403134  1
  Sc  Sc10  1  0.50485768  0.50548487  0.40683648  1
  Sc  Sc11  1  0.50318458  0.49643638  0.60267056  1
  Ti  Ti12  1  0.50759361  0.49100037  0.99827592  1
  Ti  Ti13  1  0.00486655  0.00331791  0.41117985  1
  Ti  Ti14  1  0.50420023  1.00193207  0.69900985  1
  Ti  Ti15  1  0.00306210  0.49403106  0.89459851  1
  Ni  Ni16  1  0.02809327  0.50871209  0.08343783  1
  Ni  Ni17  1  0.04335346  0.98365711  0.21484395  1
  Ni  Ni18  1  0.49198382  -0.00223613  0.50306853  1
  Ni  Ni19  1  0.01689171  0.01335654  0.59749767  1
  C  C20  1  -0.01803176  0.86808751  0.12832705  1
  C  C21  1  0.99846982  0.49001459  0.00009068  1
  C  C22  1  0.50442879  -0.00933774  -0.00139199  1
  C  C23  1  0.45990969  0.47556490  0.09028458  1
  C  C24  1  1.00715160  0.00501951  0.30392284  1
  C  C25  1  0.96206028  0.64249452  0.16786016  1
  C  C26  1  0.46473086  1.02876761  0.20522038  1
  C  C27  1  0.50910595  0.50842750  0.29946216  1
  C  C28  1  0.00736800  1.00170049  0.50552708  1
  C  C29  1  0.00496469  0.50273786  0.40354303  1
  C  C30  1  0.50418326  0.00607792  0.41121129  1
  C  C31  1  0.50300836  0.52427256  0.50417659  1
  C  C32  1  1.00045559  0.00974260  0.68293598  1
  C  C33  1  0.00167941  0.44359122  0.60360461  1
  C  C34  1  0.46363913  0.99547166  0.58889975  1
  C  C35  1  0.50368264  0.51761487  0.69981150  1
  C  C36  1  1.00096899  0.99500071  0.89702688  1
  C  C37  1  0.00144271  0.49989277  0.80746895  1
  C  C38  1  0.50121032  0.00070959  0.78784012  1
  C  C39  1  0.49820168  0.49417478  0.90181175  1
