# generated using pymatgen
data_HfTiMnCoNiC5
_symmetry_space_group_name_H-M   'P 1'
_cell_length_a   4.35743117
_cell_length_b   4.30108937
_cell_length_c   21.16395892
_cell_angle_alpha   89.86169651
_cell_angle_beta   90.22690157
_cell_angle_gamma   90.35373326
_symmetry_Int_Tables_number   1
_chemical_formula_structural   HfTiMnCoNiC5
_chemical_formula_sum   'Hf4 Ti4 Mn4 Co4 Ni4 C20'
_cell_volume   396.63678567
_cell_formula_units_Z   4
loop_
 _symmetry_equiv_pos_site_id
 _symmetry_equiv_pos_as_xyz
  1  'x, y, z'
loop_
 _atom_site_type_symbol
 _atom_site_label
 _atom_site_symmetry_multiplicity
 _atom_site_fract_x
 _atom_site_fract_y
 _atom_site_fract_z
 _atom_site_occupancy
  Hf  Hf0  1  0.49374344  0.98398973  0.10705146  1
  Hf  Hf1  1  0.99827611  0.50426753  0.49897605  1
  Hf  Hf2  1  1.02131697  0.49665266  0.90029443  1
  Hf  Hf3  1  0.52287821  -0.00245142  0.89089660  1
  Ti  Ti4  1  0.97620284  0.51346947  0.30101749  1
  Ti  Ti5  1  0.99825299  1.00914361  0.39973858  1
  Ti  Ti6  1  1.00041919  0.48223101  0.69790934  1
  Ti  Ti7  1  0.49787671  0.48768227  0.59811076  1
  Mn  Mn8  1  0.03045659  0.46963443  0.10179876  1
  Mn  Mn9  1  0.57622210  0.45959588  1.00466866  1
  Mn  Mn10  1  0.95352610  0.03952530  0.20902661  1
  Mn  Mn11  1  0.45260605  0.52267061  0.21503247  1
  Co  Co12  1  0.96989152  0.98012245  0.01594779  1
  Co  Co13  1  0.49988501  0.55304759  0.40051204  1
  Co  Co14  1  0.54226774  -0.03264597  0.69333106  1
  Co  Co15  1  0.05518483  -0.02846873  0.78828940  1
  Ni  Ni16  1  0.49356656  1.00216361  0.30535069  1
  Ni  Ni17  1  0.49836723  -0.00078458  0.50155660  1
  Ni  Ni18  1  -0.01481075  -0.00276538  0.59921948  1
  Ni  Ni19  1  0.49195429  0.52028759  0.78648338  1
  C  C20  1  -0.00572578  1.00672122  0.10534636  1
  C  C21  1  0.98948356  0.51480815  1.01116375  1
  C  C22  1  0.53906734  0.03251875  0.00058044  1
  C  C23  1  0.45604578  0.49195110  0.09648109  1
  C  C24  1  -0.00963245  0.01232642  0.29718600  1
  C  C25  1  0.02497220  0.46655313  0.19731500  1
  C  C26  1  0.52633829  0.96997522  0.21214608  1
  C  C27  1  0.47956052  0.50444780  0.30247967  1
  C  C28  1  0.99614894  1.00435246  0.50356004  1
  C  C29  1  -0.01255086  0.50616642  0.39500019  1
  C  C30  1  0.49589399  0.97179025  0.40224990  1
  C  C31  1  0.49760706  0.50060019  0.49325521  1
  C  C32  1  -0.03661421  -0.00431654  0.69882935  1
  C  C33  1  0.99719551  0.49619922  0.60201433  1
  C  C34  1  0.49168242  0.99550991  0.60186605  1
  C  C35  1  0.49874539  0.51509261  0.69674312  1
  C  C36  1  0.01950703  0.99904094  0.88032821  1
  C  C37  1  0.00859926  0.53914549  0.79475597  1
  C  C38  1  0.46914782  0.01841949  0.78075399  1
  C  C39  1  0.51653191  0.50100020  0.91264381  1
