# generated using pymatgen
data_HfScTiMnCoC5
_symmetry_space_group_name_H-M   'P 1'
_cell_length_a   4.47632631
_cell_length_b   4.50937568
_cell_length_c   21.07399388
_cell_angle_alpha   90.08124246
_cell_angle_beta   89.48420486
_cell_angle_gamma   90.09594475
_symmetry_Int_Tables_number   1
_chemical_formula_structural   HfScTiMnCoC5
_chemical_formula_sum   'Hf4 Sc4 Ti4 Mn4 Co4 C20'
_cell_volume   425.36952383
_cell_formula_units_Z   4
loop_
 _symmetry_equiv_pos_site_id
 _symmetry_equiv_pos_as_xyz
  1  'x, y, z'
loop_
 _atom_site_type_symbol
 _atom_site_label
 _atom_site_symmetry_multiplicity
 _atom_site_fract_x
 _atom_site_fract_y
 _atom_site_fract_z
 _atom_site_occupancy
  Hf  Hf0  1  1.00223461  1.00409595  1.00421195  1
  Hf  Hf1  1  0.99388450  0.50909436  0.11631836  1
  Hf  Hf2  1  0.49999517  1.00307815  0.11515384  1
  Hf  Hf3  1  1.00786624  0.50304290  0.89647632  1
  Sc  Sc4  1  0.49012140  0.99059795  0.49313323  1
  Sc  Sc5  1  0.48398818  0.49419238  0.59271784  1
  Sc  Sc6  1  1.02252553  0.00568725  0.78742200  1
  Sc  Sc7  1  0.51008134  0.49580273  0.79229245  1
  Ti  Ti8  1  0.50141487  0.50348188  0.00403768  1
  Ti  Ti9  1  1.00675789  1.01031324  0.39545395  1
  Ti  Ti10  1  0.99469073  0.49698979  0.49137220  1
  Ti  Ti11  1  0.50953076  0.00161807  0.89653154  1
  Mn  Mn12  1  0.04313887  1.06132286  0.21711054  1
  Mn  Mn13  1  0.44678323  0.45458962  0.22095578  1
  Mn  Mn14  1  0.96784469  0.55674556  0.68888446  1
  Mn  Mn15  1  0.57602661  0.95553098  0.69176906  1
  Co  Co16  1  0.94847751  0.52678748  0.30578789  1
  Co  Co17  1  0.52845953  -0.04835246  0.30359468  1
  Co  Co18  1  0.52530149  0.45455626  0.39492949  1
  Co  Co19  1  -0.04139455  0.03773801  0.59216975  1
  C  C20  1  -0.00377568  1.00506718  0.12071291  1
  C  C21  1  1.00128456  0.50374167  1.00690678  1
  C  C22  1  0.50200372  1.00360284  1.00395787  1
  C  C23  1  0.49605673  0.50513387  0.11697389  1
  C  C24  1  0.95176046  0.94715727  0.29825567  1
  C  C25  1  0.01422854  0.47563371  0.22092744  1
  C  C26  1  0.46364681  1.03127328  0.21962820  1
  C  C27  1  0.51042026  0.53055496  0.30559253  1
  C  C28  1  0.99144773  -0.00738101  0.49938905  1
  C  C29  1  -0.02534626  0.49594410  0.39340083  1
  C  C30  1  0.48191505  0.04525226  0.38703038  1
  C  C31  1  0.48977638  0.49230088  0.48244140  1
  C  C32  1  0.99553262  -0.03353599  0.68013782  1
  C  C33  1  -0.00430819  0.43935476  0.59843009  1
  C  C34  1  0.51743814  0.00111711  0.60371024  1
  C  C35  1  0.54947193  0.53962963  0.69213115  1
  C  C36  1  0.00880980  1.00295610  0.89737392  1
  C  C37  1  1.01471222  0.49985917  0.78047461  1
  C  C38  1  0.51814807  1.00090180  0.78904913  1
  C  C39  1  0.50774529  0.50209729  0.90368929  1
