# generated using pymatgen
data_HfScTiMnNiC5
_symmetry_space_group_name_H-M   'P 1'
_cell_length_a   4.44625787
_cell_length_b   4.45810521
_cell_length_c   21.54984490
_cell_angle_alpha   90.14805650
_cell_angle_beta   90.18776184
_cell_angle_gamma   89.94738168
_symmetry_Int_Tables_number   1
_chemical_formula_structural   HfScTiMnNiC5
_chemical_formula_sum   'Hf4 Sc4 Ti4 Mn4 Ni4 C20'
_cell_volume   427.15465834
_cell_formula_units_Z   4
loop_
 _symmetry_equiv_pos_site_id
 _symmetry_equiv_pos_as_xyz
  1  'x, y, z'
loop_
 _atom_site_type_symbol
 _atom_site_label
 _atom_site_symmetry_multiplicity
 _atom_site_fract_x
 _atom_site_fract_y
 _atom_site_fract_z
 _atom_site_occupancy
  Hf  Hf0  1  -0.00155878  0.52506241  0.10609961  1
  Hf  Hf1  1  0.50101177  -0.00068381  0.49659676  1
  Hf  Hf2  1  0.51046441  0.48514624  0.59628929  1
  Hf  Hf3  1  0.49809569  0.49981967  0.79788004  1
  Sc  Sc4  1  0.00395195  0.01167587  1.00480371  1
  Sc  Sc5  1  -0.00339708  0.00678685  0.39724323  1
  Sc  Sc6  1  -0.00147999  0.50476994  0.90295884  1
  Sc  Sc7  1  0.49823996  1.00216043  0.90486766  1
  Ti  Ti8  1  0.98661206  0.51010434  0.29958015  1
  Ti  Ti9  1  0.49550222  0.50415248  0.39383333  1
  Ti  Ti10  1  0.00072461  0.48991370  0.69403297  1
  Ti  Ti11  1  -0.00411659  1.00076049  0.79545784  1
  Mn  Mn12  1  0.53165733  0.05924619  0.10452099  1
  Mn  Mn13  1  0.06785062  0.03061971  0.20564374  1
  Mn  Mn14  1  0.47078967  0.41778684  0.20558124  1
  Mn  Mn15  1  0.04723976  0.94305967  0.59942904  1
  Ni  Ni16  1  0.50054545  0.50249147  1.00719899  1
  Ni  Ni17  1  0.50557693  -0.01975484  0.29656801  1
  Ni  Ni18  1  0.99957196  0.49962680  0.49532635  1
  Ni  Ni19  1  0.49870159  0.99895264  0.69732377  1
  C  C20  1  0.95218070  1.00974903  0.11663221  1
  C  C21  1  0.00874969  0.51146640  1.00593593  1
  C  C22  1  0.49963320  0.01229685  0.01974040  1
  C  C23  1  0.50119682  0.47969556  0.11023842  1
  C  C24  1  0.97042082  0.99135518  0.28939627  1
  C  C25  1  0.04163873  0.45788791  0.20651451  1
  C  C26  1  0.47989430  1.00090087  0.20260315  1
  C  C27  1  0.49989345  0.50875575  0.29204513  1
  C  C28  1  0.99447775  0.03268453  0.51162962  1
  C  C29  1  0.99933036  0.50542705  0.39860378  1
  C  C30  1  0.49535710  0.00122796  0.38946205  1
  C  C31  1  0.50577841  0.50012000  0.49089124  1
  C  C32  1  0.97921056  0.00415555  0.68656194  1
  C  C33  1  1.00648632  0.53214641  0.59219464  1
  C  C34  1  0.46611131  -0.01188065  0.60303860  1
  C  C35  1  0.50050599  0.48443312  0.69665123  1
  C  C36  1  0.99736699  0.00473934  0.89169726  1
  C  C37  1  -0.00176941  0.50244697  0.79178995  1
  C  C38  1  0.49502983  -0.00067276  0.79208815  1
  C  C39  1  0.49893132  0.50213220  0.91101424  1
