# generated using pymatgen
data_HfScTiCoMoC5
_symmetry_space_group_name_H-M   'P 1'
_cell_length_a   4.48176460
_cell_length_b   4.43735173
_cell_length_c   21.88804750
_cell_angle_alpha   90.03582007
_cell_angle_beta   89.93820987
_cell_angle_gamma   90.00895602
_symmetry_Int_Tables_number   1
_chemical_formula_structural   HfScTiCoMoC5
_chemical_formula_sum   'Hf4 Sc4 Ti4 Co4 Mo4 C20'
_cell_volume   435.29088912
_cell_formula_units_Z   4
loop_
 _symmetry_equiv_pos_site_id
 _symmetry_equiv_pos_as_xyz
  1  'x, y, z'
loop_
 _atom_site_type_symbol
 _atom_site_label
 _atom_site_symmetry_multiplicity
 _atom_site_fract_x
 _atom_site_fract_y
 _atom_site_fract_z
 _atom_site_occupancy
  Hf  Hf0  1  1.00523720  0.50535057  0.10982957  1
  Hf  Hf1  1  0.50511703  0.50096125  0.00582374  1
  Hf  Hf2  1  -0.00514356  0.49042637  0.49618657  1
  Hf  Hf3  1  0.50053489  0.50203777  0.79835029  1
  Sc  Sc4  1  1.00635645  1.00072069  1.00657017  1
  Sc  Sc5  1  0.49243602  0.50596659  0.39584967  1
  Sc  Sc6  1  0.49333132  0.49001749  0.59851863  1
  Sc  Sc7  1  0.00357503  0.50280400  0.90107281  1
  Ti  Ti8  1  0.48753558  1.00906579  0.29585738  1
  Ti  Ti9  1  0.50069369  0.49444064  0.20282424  1
  Ti  Ti10  1  0.50708883  0.99230766  0.69480898  1
  Ti  Ti11  1  0.50324598  0.00330140  0.90084193  1
  Co  Co12  1  0.54180923  -0.02285846  0.10675908  1
  Co  Co13  1  0.94660746  0.03282312  0.20566238  1
  Co  Co14  1  0.95749688  1.02616154  0.38460960  1
  Co  Co15  1  0.95988992  0.95778455  0.59836256  1
  Mo  Mo16  1  -0.00660613  0.53277310  0.29962703  1
  Mo  Mo17  1  0.48647883  -0.00697030  0.50086027  1
  Mo  Mo18  1  1.00758991  0.46463954  0.69435840  1
  Mo  Mo19  1  -0.00993056  -0.00493890  0.79845440  1
  C  C20  1  -0.04520052  1.00455610  0.11671032  1
  C  C21  1  0.00574357  0.49949012  0.00620256  1
  C  C22  1  0.50729236  0.00162170  1.00831307  1
  C  C23  1  0.50042220  0.53604167  0.10826249  1
  C  C24  1  0.98749016  1.00394232  0.29834448  1
  C  C25  1  0.00212449  0.45328536  0.20859497  1
  C  C26  1  0.53049239  -0.00408260  0.19778332  1
  C  C27  1  0.48345316  0.51343560  0.29617630  1
  C  C28  1  1.02222740  0.99463136  0.50724743  1
  C  C29  1  -0.00476140  0.47580382  0.39214722  1
  C  C30  1  0.55298438  0.00224374  0.39759508  1
  C  C31  1  0.49712318  0.49193473  0.49700245  1
  C  C32  1  0.00825514  0.00419112  0.69039957  1
  C  C33  1  -0.00434041  0.53923880  0.60281804  1
  C  C34  1  0.54751567  0.99291269  0.59538112  1
  C  C35  1  0.49610625  0.49042008  0.69837351  1
  C  C36  1  1.00802777  0.00419308  0.89264614  1
  C  C37  1  1.00156438  0.51502805  0.79232264  1
  C  C38  1  0.51362218  0.00265554  0.79704700  1
  C  C39  1  0.50383241  0.50333261  0.90165980  1
