# generated using pymatgen
data_HfTiCoNiMoC5
_symmetry_space_group_name_H-M   'P 1'
_cell_length_a   4.38691062
_cell_length_b   4.38621587
_cell_length_c   21.18376798
_cell_angle_alpha   90.14728855
_cell_angle_beta   89.94153628
_cell_angle_gamma   90.11572846
_symmetry_Int_Tables_number   1
_chemical_formula_structural   HfTiCoNiMoC5
_chemical_formula_sum   'Hf4 Ti4 Co4 Ni4 Mo4 C20'
_cell_volume   407.61434019
_cell_formula_units_Z   4
loop_
 _symmetry_equiv_pos_site_id
 _symmetry_equiv_pos_as_xyz
  1  'x, y, z'
loop_
 _atom_site_type_symbol
 _atom_site_label
 _atom_site_symmetry_multiplicity
 _atom_site_fract_x
 _atom_site_fract_y
 _atom_site_fract_z
 _atom_site_occupancy
  Hf  Hf0  1  -0.00196313  1.00006226  -0.00698487  1
  Hf  Hf1  1  0.49524329  0.50000813  0.99917986  1
  Hf  Hf2  1  1.00908571  -0.00037062  0.19775779  1
  Hf  Hf3  1  1.00411609  0.50668997  0.31026360  1
  Ti  Ti4  1  0.50308191  0.00892709  0.30923333  1
  Ti  Ti5  1  0.00109167  1.00204887  0.59859370  1
  Ti  Ti6  1  0.00582711  0.49547596  0.69496484  1
  Ti  Ti7  1  -0.00329689  0.49494192  0.89000586  1
  Co  Co8  1  0.54059692  0.97127617  0.09873936  1
  Co  Co9  1  0.47387778  0.46225235  0.42272725  1
  Co  Co10  1  0.53737108  0.45516106  0.59600271  1
  Co  Co11  1  1.04353091  0.96406902  0.79533481  1
  Ni  Ni12  1  -0.02202936  0.51149902  0.09744811  1
  Ni  Ni13  1  0.02654507  0.51614106  0.50663566  1
  Ni  Ni14  1  0.48721231  0.96336837  0.50402231  1
  Ni  Ni15  1  0.49852387  -0.00004675  0.88745374  1
  Mo  Mo16  1  0.50742124  0.48980815  0.19568026  1
  Mo  Mo17  1  0.97291965  0.01623537  0.41521616  1
  Mo  Mo18  1  0.52260526  -0.02253311  0.69678744  1
  Mo  Mo19  1  0.50427992  0.48852243  0.79561865  1
  C  C20  1  0.95230637  0.00420655  0.09655589  1
  C  C21  1  0.99587479  0.50034056  -0.00550150  1
  C  C22  1  0.49556234  0.00155040  1.00339957  1
  C  C23  1  0.49292666  0.53917239  0.10372120  1
  C  C24  1  0.00483351  1.00422549  0.30953412  1
  C  C25  1  0.00133533  0.50083124  0.19797427  1
  C  C26  1  0.50541967  1.00910107  0.19860072  1
  C  C27  1  0.50380725  0.50927532  0.30447760  1
  C  C28  1  0.00912853  0.98571777  0.50604670  1
  C  C29  1  0.02335013  0.50410266  0.41500009  1
  C  C30  1  0.50077986  0.02573855  0.41030648  1
  C  C31  1  0.49843600  0.49581639  0.50684143  1
  C  C32  1  0.99814620  -0.00179021  0.70386302  1
  C  C33  1  -0.03117791  0.50350210  0.59648002  1
  C  C34  1  0.49462205  0.03645978  0.59811584  1
  C  C35  1  0.49634628  0.50417704  0.68880506  1
  C  C36  1  -0.00398635  0.00167791  0.88288913  1
  C  C37  1  0.99544144  0.53283781  0.79219179  1
  C  C38  1  0.46622092  0.01381649  0.79526046  1
  C  C39  1  0.49640520  0.50552744  0.89079774  1
