# generated using pymatgen
data_HfMgTiNiMoC5
_symmetry_space_group_name_H-M   'P 1'
_cell_length_a   4.39496231
_cell_length_b   4.39449169
_cell_length_c   21.91251300
_cell_angle_alpha   90.03445721
_cell_angle_beta   90.02211299
_cell_angle_gamma   89.99385183
_symmetry_Int_Tables_number   1
_chemical_formula_structural   HfMgTiNiMoC5
_chemical_formula_sum   'Hf4 Mg4 Ti4 Ni4 Mo4 C20'
_cell_volume   423.20995631
_cell_formula_units_Z   4
loop_
 _symmetry_equiv_pos_site_id
 _symmetry_equiv_pos_as_xyz
  1  'x, y, z'
loop_
 _atom_site_type_symbol
 _atom_site_label
 _atom_site_symmetry_multiplicity
 _atom_site_fract_x
 _atom_site_fract_y
 _atom_site_fract_z
 _atom_site_occupancy
  Hf  Hf0  1  0.50013519  0.00053668  0.10686689  1
  Hf  Hf1  1  0.49775921  0.49761243  1.00136414  1
  Hf  Hf2  1  1.00065544  1.00146829  0.20613622  1
  Hf  Hf3  1  1.00072581  0.50160409  0.30804962  1
  Mg  Mg4  1  0.99959262  0.49987546  0.10444366  1
  Mg  Mg5  1  0.00015886  0.00285804  0.40604218  1
  Mg  Mg6  1  0.50125191  -0.00038952  0.69562913  1
  Mg  Mg7  1  0.50072941  0.49569267  0.78795063  1
  Ti  Ti8  1  0.50119799  1.00406105  0.49848327  1
  Ti  Ti9  1  0.50031674  0.50323991  0.40468817  1
  Ti  Ti10  1  0.49947850  0.48991782  0.59832592  1
  Ti  Ti11  1  -0.00494455  0.50118244  0.89047569  1
  Ni  Ni12  1  0.50086347  0.00112945  0.30692054  1
  Ni  Ni13  1  0.50082758  0.50165447  0.20711176  1
  Ni  Ni14  1  -0.00056862  0.50220869  0.50139785  1
  Ni  Ni15  1  0.99471971  0.49942048  0.69528783  1
  Mo  Mo16  1  0.99182619  0.98373060  1.00073135  1
  Mo  Mo17  1  1.00586400  0.96755014  0.59864020  1
  Mo  Mo18  1  0.99756452  0.98268849  0.78831628  1
  Mo  Mo19  1  0.47409653  0.01893314  0.89102090  1
  C  C20  1  0.00169187  0.00186839  0.09386841  1
  C  C21  1  -0.00066569  0.50783986  -0.00719117  1
  C  C22  1  0.50667340  0.99915728  0.99616351  1
  C  C23  1  0.49976391  0.50070407  0.11026433  1
  C  C24  1  0.00055842  1.00190841  0.30555689  1
  C  C25  1  0.00154318  0.50128020  0.20511905  1
  C  C26  1  0.50066980  1.00051703  0.21204849  1
  C  C27  1  0.50081814  0.50370709  0.30247945  1
  C  C28  1  0.99904382  1.01241903  0.50748049  1
  C  C29  1  0.00116399  0.50298932  0.41190993  1
  C  C30  1  0.50007842  0.00383038  0.39995886  1
  C  C31  1  0.50310627  0.50434059  0.50035336  1
  C  C32  1  0.00153205  0.00477438  0.69823089  1
  C  C33  1  1.00085821  0.50241579  0.59959903  1
  C  C34  1  0.49560958  -0.00616648  0.59498674  1
  C  C35  1  0.51571387  0.49956707  0.68941039  1
  C  C36  1  1.00289080  0.00272573  0.89469987  1
  C  C37  1  0.00127172  0.50960863  0.79277115  1
  C  C38  1  0.50733413  -0.00361780  0.79898205  1
  C  C39  1  0.49813969  0.48986140  0.89508866  1
