# generated using pymatgen
data_HfMgTiCoMoC5
_symmetry_space_group_name_H-M   'P 1'
_cell_length_a   4.44041691
_cell_length_b   4.43379789
_cell_length_c   21.56859576
_cell_angle_alpha   90.03088790
_cell_angle_beta   89.71363025
_cell_angle_gamma   89.83430790
_symmetry_Int_Tables_number   1
_chemical_formula_structural   HfMgTiCoMoC5
_chemical_formula_sum   'Hf4 Mg4 Ti4 Co4 Mo4 C20'
_cell_volume   424.63345238
_cell_formula_units_Z   4
loop_
 _symmetry_equiv_pos_site_id
 _symmetry_equiv_pos_as_xyz
  1  'x, y, z'
loop_
 _atom_site_type_symbol
 _atom_site_label
 _atom_site_symmetry_multiplicity
 _atom_site_fract_x
 _atom_site_fract_y
 _atom_site_fract_z
 _atom_site_occupancy
  Hf  Hf0  1  0.99863034  1.00028515  0.00215301  1
  Hf  Hf1  1  0.99237090  1.00472988  0.20456481  1
  Hf  Hf2  1  0.98814657  -0.00788598  0.40681837  1
  Hf  Hf3  1  0.99881733  1.00323293  0.79280163  1
  Mg  Mg4  1  1.00161375  0.50421654  0.10467555  1
  Mg  Mg5  1  0.99180745  0.49864751  0.50138415  1
  Mg  Mg6  1  0.50169534  1.00147066  0.69455733  1
  Mg  Mg7  1  0.49867967  0.50335914  0.79410671  1
  Ti  Ti8  1  0.49737412  1.00308877  0.10677641  1
  Ti  Ti9  1  1.00054617  0.50873197  0.69350829  1
  Ti  Ti10  1  -0.00198202  0.50250939  0.89522452  1
  Ti  Ti11  1  0.49596659  0.00193493  0.89671971  1
  Co  Co12  1  0.46439717  0.94933926  0.29969247  1
  Co  Co13  1  0.52916684  0.53800092  0.20073255  1
  Co  Co14  1  0.45734081  -0.03999958  0.50069982  1
  Co  Co15  1  0.98772310  1.03429939  0.59835409  1
  Mo  Mo16  1  0.51166768  0.49046137  0.00108491  1
  Mo  Mo17  1  0.03884214  0.48632668  0.30177981  1
  Mo  Mo18  1  0.49646123  0.47720544  0.40106805  1
  Mo  Mo19  1  0.49713879  0.46919681  0.59481186  1
  C  C20  1  1.00182820  0.00493057  0.10334908  1
  C  C21  1  0.98400974  0.50170682  -0.00255725  1
  C  C22  1  0.49607360  1.00808471  1.00389604  1
  C  C23  1  0.50082988  0.50762537  0.10935576  1
  C  C24  1  0.04196023  1.00118614  0.30649005  1
  C  C25  1  -0.05285003  0.50183763  0.20948865  1
  C  C26  1  0.49325401  0.97838937  0.20881923  1
  C  C27  1  0.50243518  0.53997362  0.29959064  1
  C  C28  1  1.04332569  0.99834189  0.51234448  1
  C  C29  1  0.98006857  0.49400292  0.39901420  1
  C  C30  1  0.49089115  0.01022900  0.40568119  1
  C  C31  1  0.49500587  0.54732650  0.49429013  1
  C  C32  1  0.00143723  0.00021497  0.68666862  1
  C  C33  1  0.02249162  0.45573994  0.59897023  1
  C  C34  1  0.56757976  0.00234402  0.58446345  1
  C  C35  1  0.50362605  0.50660498  0.68720772  1
  C  C36  1  0.99396921  1.00219771  0.89768101  1
  C  C37  1  -0.00138640  0.50266306  0.79561162  1
  C  C38  1  0.49851025  0.00345420  0.80225945  1
  C  C39  1  0.48899644  0.50407666  0.90547484  1
