# generated using pymatgen
data_HfMgTiMnMoC5
_symmetry_space_group_name_H-M   'P 1'
_cell_length_a   4.42150427
_cell_length_b   4.42415562
_cell_length_c   22.00672080
_cell_angle_alpha   90.16503413
_cell_angle_beta   89.96331880
_cell_angle_gamma   90.08808036
_symmetry_Int_Tables_number   1
_chemical_formula_structural   HfMgTiMnMoC5
_chemical_formula_sum   'Hf4 Mg4 Ti4 Mn4 Mo4 C20'
_cell_volume   430.48039171
_cell_formula_units_Z   4
loop_
 _symmetry_equiv_pos_site_id
 _symmetry_equiv_pos_as_xyz
  1  'x, y, z'
loop_
 _atom_site_type_symbol
 _atom_site_label
 _atom_site_symmetry_multiplicity
 _atom_site_fract_x
 _atom_site_fract_y
 _atom_site_fract_z
 _atom_site_occupancy
  Hf  Hf0  1  -0.00523744  -0.00331942  0.20266632  1
  Hf  Hf1  1  0.99711241  0.51119164  0.49565719  1
  Hf  Hf2  1  1.00498242  -0.00668944  0.59742929  1
  Hf  Hf3  1  1.00126259  0.99299348  0.79928674  1
  Mg  Mg4  1  1.00024879  -0.00445064  1.00123658  1
  Mg  Mg5  1  0.49654837  -0.00840963  0.09905591  1
  Mg  Mg6  1  0.50758762  0.98250496  0.69863626  1
  Mg  Mg7  1  1.00112161  0.49676395  0.90511609  1
  Ti  Ti8  1  0.50055277  0.49691001  1.00143566  1
  Ti  Ti9  1  0.49957300  0.51621166  0.39763112  1
  Ti  Ti10  1  1.01084160  0.49006954  0.69672735  1
  Ti  Ti11  1  0.49919821  0.99637805  0.90432672  1
  Mn  Mn12  1  0.46523527  0.46664124  0.19807186  1
  Mn  Mn13  1  0.94492910  0.97001112  0.39841729  1
  Mn  Mn14  1  0.46459909  0.06276942  0.49532725  1
  Mn  Mn15  1  0.53479977  0.44721247  0.60220410  1
  Mo  Mo16  1  0.99364305  0.47846670  0.09921081  1
  Mo  Mo17  1  0.97882890  0.49509782  0.30271646  1
  Mo  Mo18  1  0.48641269  0.99642891  0.30493573  1
  Mo  Mo19  1  0.50619017  0.48481989  0.80726426  1
  C  C20  1  0.99609197  0.00920464  0.10437835  1
  C  C21  1  0.00460593  0.49854104  1.00979040  1
  C  C22  1  0.50086731  1.00009944  0.99709880  1
  C  C23  1  0.50089508  0.49712803  0.11135748  1
  C  C24  1  1.01275175  1.01968810  0.31076324  1
  C  C25  1  1.03907967  0.50502459  0.20514888  1
  C  C26  1  0.50073954  1.04355765  0.20977722  1
  C  C27  1  0.50660129  0.52017712  0.29928307  1
  C  C28  1  0.04165063  0.01098461  0.48800312  1
  C  C29  1  0.00239228  0.54395107  0.39501461  1
  C  C30  1  0.53416245  0.01806357  0.40437809  1
  C  C31  1  0.49676374  0.48120729  0.49793825  1
  C  C32  1  0.00734983  -0.01151483  0.69617294  1
  C  C33  1  0.96781841  0.49729716  0.59795518  1
  C  C34  1  0.50580467  0.02816835  0.58455367  1
  C  C35  1  0.49587719  0.48543060  0.68661415  1
  C  C36  1  0.00208905  -0.00376678  0.90004741  1
  C  C37  1  0.99271799  0.49462454  0.79451359  1
  C  C38  1  0.50067592  1.00297877  0.80216625  1
  C  C39  1  0.50079822  0.49802129  0.89805930  1
