# generated using pymatgen
data_HfMgScTiMoC5
_symmetry_space_group_name_H-M   'P 1'
_cell_length_a   4.49440685
_cell_length_b   4.49544303
_cell_length_c   22.58077106
_cell_angle_alpha   89.95045040
_cell_angle_beta   90.00038697
_cell_angle_gamma   90.00878559
_symmetry_Int_Tables_number   1
_chemical_formula_structural   HfMgScTiMoC5
_chemical_formula_sum   'Hf4 Mg4 Sc4 Ti4 Mo4 C20'
_cell_volume   456.22962453
_cell_formula_units_Z   4
loop_
 _symmetry_equiv_pos_site_id
 _symmetry_equiv_pos_as_xyz
  1  'x, y, z'
loop_
 _atom_site_type_symbol
 _atom_site_label
 _atom_site_symmetry_multiplicity
 _atom_site_fract_x
 _atom_site_fract_y
 _atom_site_fract_z
 _atom_site_occupancy
  Hf  Hf0  1  0.50010501  0.50115169  0.00141407  1
  Hf  Hf1  1  0.00340792  0.99578799  0.20333966  1
  Hf  Hf2  1  0.99123526  0.50878873  0.49520722  1
  Hf  Hf3  1  1.00010476  0.50053905  0.90058594  1
  Mg  Mg4  1  0.50253466  -0.01118268  0.30141084  1
  Mg  Mg5  1  0.99483183  0.99037847  0.39588255  1
  Mg  Mg6  1  0.50457189  0.49726493  0.60000031  1
  Mg  Mg7  1  0.50019803  1.00059903  0.90137282  1
  Sc  Sc8  1  0.00156515  0.50088634  0.10309072  1
  Sc  Sc9  1  0.00185283  0.50028226  0.69802253  1
  Sc  Sc10  1  0.50281696  1.00180196  0.69621759  1
  Sc  Sc11  1  0.00047038  1.00063401  0.80054241  1
  Ti  Ti12  1  0.99987232  1.00111880  1.00227988  1
  Ti  Ti13  1  0.50056654  -0.00066569  0.10241735  1
  Ti  Ti14  1  1.00114646  0.49272220  0.30298898  1
  Ti  Ti15  1  0.50102543  0.49965831  0.79882692  1
  Mo  Mo16  1  0.51616030  0.47784616  0.20218552  1
  Mo  Mo17  1  0.47010970  0.02189640  0.49883585  1
  Mo  Mo18  1  0.48279486  0.46204509  0.39342080  1
  Mo  Mo19  1  0.01393861  0.97310219  0.59850392  1
  C  C20  1  1.00185277  1.00136036  0.10034661  1
  C  C21  1  0.00013607  0.50027835  0.00227931  1
  C  C22  1  0.50038117  0.00113600  0.00916381  1
  C  C23  1  0.49963060  0.50518445  0.10967864  1
  C  C24  1  1.00255002  0.00435157  0.29981723  1
  C  C25  1  -0.00967740  0.49894804  0.20644709  1
  C  C26  1  0.50158129  0.01028647  0.19906599  1
  C  C27  1  0.50016356  0.49697988  0.30212295  1
  C  C28  1  0.00367263  0.01071669  0.49899213  1
  C  C29  1  1.00898579  0.49809008  0.39523952  1
  C  C30  1  0.50231181  1.01605350  0.40357753  1
  C  C31  1  0.49505401  0.50614298  0.49094073  1
  C  C32  1  1.00149737  0.00531860  0.68679170  1
  C  C33  1  0.00263387  0.51928859  0.59469073  1
  C  C34  1  0.50032142  1.00122966  0.58887735  1
  C  C35  1  0.50201176  0.50122832  0.70587197  1
  C  C36  1  0.00014691  0.00037350  0.91021736  1
  C  C37  1  0.00022685  0.50100816  0.80131095  1
  C  C38  1  0.50012503  1.00066532  0.79885702  1
  C  C39  1  0.50012892  0.50065705  0.89933876  1
