# generated using pymatgen
data_HfTiMnCoMoC5
_symmetry_space_group_name_H-M   'P 1'
_cell_length_a   4.41356107
_cell_length_b   4.36065519
_cell_length_c   21.24963128
_cell_angle_alpha   90.23417759
_cell_angle_beta   90.10584498
_cell_angle_gamma   90.14380462
_symmetry_Int_Tables_number   1
_chemical_formula_structural   HfTiMnCoMoC5
_chemical_formula_sum   'Hf4 Ti4 Mn4 Co4 Mo4 C20'
_cell_volume   408.96537620
_cell_formula_units_Z   4
loop_
 _symmetry_equiv_pos_site_id
 _symmetry_equiv_pos_as_xyz
  1  'x, y, z'
loop_
 _atom_site_type_symbol
 _atom_site_label
 _atom_site_symmetry_multiplicity
 _atom_site_fract_x
 _atom_site_fract_y
 _atom_site_fract_z
 _atom_site_occupancy
  Hf  Hf0  1  0.00127455  1.01385058  0.00155679  1
  Hf  Hf1  1  1.01373614  0.49882716  0.30168592  1
  Hf  Hf2  1  0.98972488  0.51502272  0.49761870  1
  Hf  Hf3  1  1.00320985  0.51148192  0.89301745  1
  Ti  Ti4  1  0.49986805  0.49603000  0.20432968  1
  Ti  Ti5  1  -0.00899181  0.50886069  0.70068945  1
  Ti  Ti6  1  0.50511971  1.00738949  0.70093798  1
  Ti  Ti7  1  0.50476848  1.01154825  0.89407141  1
  Mn  Mn8  1  0.52980126  0.54799199  -0.00210158  1
  Mn  Mn9  1  -0.04644393  0.98183736  0.20585921  1
  Mn  Mn10  1  0.93986146  0.02175636  0.39772988  1
  Mn  Mn11  1  0.45961931  0.04035605  0.49274861  1
  Co  Co12  1  0.52919188  0.00609033  0.30485055  1
  Co  Co13  1  0.51548045  0.44420965  0.39727006  1
  Co  Co14  1  0.05926108  0.02259234  0.79491355  1
  Co  Co15  1  0.45858031  0.52497898  0.79049167  1
  Mo  Mo16  1  0.01570795  0.49318411  0.10504833  1
  Mo  Mo17  1  0.48290031  0.98101792  0.11003403  1
  Mo  Mo18  1  -0.01375808  0.01060202  0.60214510  1
  Mo  Mo19  1  0.49423418  0.50854029  0.60244951  1
  C  C20  1  0.00127770  0.00835718  0.11067438  1
  C  C21  1  0.95827238  0.51099245  0.00437472  1
  C  C22  1  0.49712697  0.97294776  0.00238630  1
  C  C23  1  0.49044937  0.49625300  0.09884765  1
  C  C24  1  -0.00439179  -0.00577450  0.30404681  1
  C  C25  1  0.99603832  0.50983566  0.19897665  1
  C  C26  1  0.53152977  0.99664359  0.20863612  1
  C  C27  1  0.50660262  0.47643565  0.30554465  1
  C  C28  1  0.03844679  0.00306617  0.49296774  1
  C  C29  1  0.97973687  0.44972340  0.39987882  1
  C  C30  1  0.53073509  0.98251961  0.40056148  1
  C  C31  1  0.49361718  0.46669886  0.49518704  1
  C  C32  1  0.00383269  0.00742554  0.70025410  1
  C  C33  1  0.00981163  0.49910930  0.60197139  1
  C  C34  1  0.51472917  0.98559842  0.59142632  1
  C  C35  1  0.50230881  0.50274500  0.70100231  1
  C  C36  1  1.00285112  1.01138067  0.89147825  1
  C  C37  1  0.03649117  0.48525380  0.79328006  1
  C  C38  1  0.47636303  0.98673891  0.79693042  1
  C  C39  1  0.50175261  0.50766046  0.90618665  1
