# generated using pymatgen
data_HfScTiMnMoC5
_symmetry_space_group_name_H-M   'P 1'
_cell_length_a   4.48409542
_cell_length_b   4.48169425
_cell_length_c   21.84257891
_cell_angle_alpha   89.96184653
_cell_angle_beta   89.85833727
_cell_angle_gamma   89.96037736
_symmetry_Int_Tables_number   1
_chemical_formula_structural   HfScTiMnMoC5
_chemical_formula_sum   'Hf4 Sc4 Ti4 Mn4 Mo4 C20'
_cell_volume   438.95445015
_cell_formula_units_Z   4
loop_
 _symmetry_equiv_pos_site_id
 _symmetry_equiv_pos_as_xyz
  1  'x, y, z'
loop_
 _atom_site_type_symbol
 _atom_site_label
 _atom_site_symmetry_multiplicity
 _atom_site_fract_x
 _atom_site_fract_y
 _atom_site_fract_z
 _atom_site_occupancy
  Hf  Hf0  1  1.00047680  -0.00181348  0.00642822  1
  Hf  Hf1  1  0.99951660  1.00308799  0.59756276  1
  Hf  Hf2  1  0.50451040  0.50200580  0.59596509  1
  Hf  Hf3  1  0.00398493  0.49951454  0.89954653  1
  Sc  Sc4  1  0.49607034  -0.01025031  0.10741312  1
  Sc  Sc5  1  0.50178078  0.49637293  0.00578745  1
  Sc  Sc6  1  -0.00832378  1.00419166  0.39581447  1
  Sc  Sc7  1  0.51302088  0.50114567  0.79745132  1
  Ti  Ti8  1  0.49482173  1.00445366  0.30017464  1
  Ti  Ti9  1  1.00334266  0.50100041  0.49367447  1
  Ti  Ti10  1  0.49781555  0.50961827  0.39768448  1
  Ti  Ti11  1  0.50378592  -0.00159637  0.89996582  1
  Mn  Mn12  1  0.03467982  0.45934259  0.10874739  1
  Mn  Mn13  1  -0.05507685  0.94992830  0.20347340  1
  Mn  Mn14  1  0.45546127  0.04871403  0.49090101  1
  Mn  Mn15  1  0.04682128  0.53904518  0.69974542  1
  Mo  Mo16  1  0.01016477  0.48880578  0.29572563  1
  Mo  Mo17  1  0.52501831  0.48476820  0.20412506  1
  Mo  Mo18  1  0.48835974  1.00482624  0.70187068  1
  Mo  Mo19  1  1.01592874  0.01736930  0.79480597  1
  C  C20  1  0.99654892  1.04643915  0.11482120  1
  C  C21  1  0.99904330  0.50008396  0.01492798  1
  C  C22  1  0.50095821  0.99597883  -0.00162463  1
  C  C23  1  0.45131487  0.49421769  0.11120296  1
  C  C24  1  0.00451524  0.01817519  0.28974687  1
  C  C25  1  0.99384189  0.54265628  0.19866308  1
  C  C26  1  0.53014664  -0.00425187  0.20725252  1
  C  C27  1  0.49034739  0.50287284  0.30121074  1
  C  C28  1  0.03978080  -0.00232425  0.49685414  1
  C  C29  1  0.99440663  0.50715906  0.39584699  1
  C  C30  1  0.49693292  -0.00021558  0.40365530  1
  C  C31  1  0.50533378  0.46481711  0.49344831  1
  C  C32  1  -0.01059255  0.95606237  0.70099032  1
  C  C33  1  0.00210698  0.50234764  0.60035201  1
  C  C34  1  0.50357117  -0.00000226  0.59444379  1
  C  C35  1  0.46087804  0.48823144  0.69668106  1
  C  C36  1  -0.00004507  0.99828778  0.89661693  1
  C  C37  1  1.00850455  0.48834125  0.79014193  1
  C  C38  1  0.49922468  -0.00097628  0.79728625  1
  C  C39  1  0.50335319  0.49841602  0.90018961  1
