# generated using pymatgen
data_HfTiMnNiMoC5
_symmetry_space_group_name_H-M   'P 1'
_cell_length_a   4.40935916
_cell_length_b   4.36863618
_cell_length_c   21.45368655
_cell_angle_alpha   90.43264915
_cell_angle_beta   89.58826673
_cell_angle_gamma   89.80073785
_symmetry_Int_Tables_number   1
_chemical_formula_structural   HfTiMnNiMoC5
_chemical_formula_sum   'Hf4 Ti4 Mn4 Ni4 Mo4 C20'
_cell_volume   413.23488833
_cell_formula_units_Z   4
loop_
 _symmetry_equiv_pos_site_id
 _symmetry_equiv_pos_as_xyz
  1  'x, y, z'
loop_
 _atom_site_type_symbol
 _atom_site_label
 _atom_site_symmetry_multiplicity
 _atom_site_fract_x
 _atom_site_fract_y
 _atom_site_fract_z
 _atom_site_occupancy
  Hf  Hf0  1  0.50375979  0.48320805  0.98624979  1
  Hf  Hf1  1  0.01143913  0.49314177  0.30429702  1
  Hf  Hf2  1  0.50071188  0.49453206  0.19774099  1
  Hf  Hf3  1  0.49990132  0.49836994  0.60552305  1
  Ti  Ti4  1  0.50126818  0.99177366  0.08974428  1
  Ti  Ti5  1  0.99842472  0.50694819  0.50527144  1
  Ti  Ti6  1  0.49509832  1.01173220  0.70588668  1
  Ti  Ti7  1  0.98192818  1.01251540  0.80582814  1
  Mn  Mn8  1  0.55135204  -0.03127000  0.31244367  1
  Mn  Mn9  1  0.06781459  1.03329254  0.40931238  1
  Mn  Mn10  1  0.45511494  -0.02539984  0.50947751  1
  Mn  Mn11  1  0.43104655  0.94706186  0.89463350  1
  Ni  Ni12  1  0.99517859  -0.00894780  0.99317510  1
  Ni  Ni13  1  0.00360373  0.00074257  0.60371721  1
  Ni  Ni14  1  1.00514087  0.50851392  0.89404360  1
  Ni  Ni15  1  0.50171243  0.50331272  0.79888406  1
  Mo  Mo16  1  1.00708937  0.48919408  0.08727631  1
  Mo  Mo17  1  0.00381299  0.99615325  0.18965912  1
  Mo  Mo18  1  0.51752970  0.49186979  0.40714556  1
  Mo  Mo19  1  0.00302157  0.53144417  0.70871094  1
  C  C20  1  0.99653393  -0.00824005  0.09443109  1
  C  C21  1  1.00185906  0.48947895  -0.00607124  1
  C  C22  1  0.51181099  0.98774355  -0.01405218  1
  C  C23  1  0.49657543  0.49466061  0.09321771  1
  C  C24  1  -0.03433167  -0.00572915  0.30520946  1
  C  C25  1  -0.00082286  0.48578774  0.19630446  1
  C  C26  1  0.48257733  -0.00583889  0.19765115  1
  C  C27  1  0.50731044  0.53257614  0.30538525  1
  C  C28  1  0.03338140  0.00310124  0.49967634  1
  C  C29  1  1.00686626  0.46864277  0.40721044  1
  C  C30  1  0.48676753  0.00369142  0.40013051  1
  C  C31  1  0.50758785  0.53526078  0.50137728  1
  C  C32  1  0.99586921  0.00841680  0.70034894  1
  C  C33  1  -0.00215228  0.49619162  0.60447483  1
  C  C34  1  0.49272918  1.00026383  0.59778503  1
  C  C35  1  0.49266231  0.51111436  0.70965109  1
  C  C36  1  0.02305800  1.00439850  0.90258214  1
  C  C37  1  0.98108120  0.50871805  0.80282171  1
  C  C38  1  0.49195593  0.02843038  0.80662936  1
  C  C39  1  0.49284703  0.53377794  0.88568196  1
