# generated using pymatgen
data_HfScTiNiMoC5
_symmetry_space_group_name_H-M   'P 1'
_cell_length_a   4.44886208
_cell_length_b   4.44573189
_cell_length_c   22.03226383
_cell_angle_alpha   90.05919941
_cell_angle_beta   89.91813033
_cell_angle_gamma   89.97119864
_symmetry_Int_Tables_number   1
_chemical_formula_structural   HfScTiNiMoC5
_chemical_formula_sum   'Hf4 Sc4 Ti4 Ni4 Mo4 C20'
_cell_volume   435.76325262
_cell_formula_units_Z   4
loop_
 _symmetry_equiv_pos_site_id
 _symmetry_equiv_pos_as_xyz
  1  'x, y, z'
loop_
 _atom_site_type_symbol
 _atom_site_label
 _atom_site_symmetry_multiplicity
 _atom_site_fract_x
 _atom_site_fract_y
 _atom_site_fract_z
 _atom_site_occupancy
  Hf  Hf0  1  0.49622174  0.50178413  1.00674173  1
  Hf  Hf1  1  0.50404706  0.48962173  0.39153623  1
  Hf  Hf2  1  -0.00261060  0.49819847  0.90143302  1
  Hf  Hf3  1  0.49754742  -0.00056675  0.90124259  1
  Sc  Sc4  1  0.49402939  1.01328761  0.10499833  1
  Sc  Sc5  1  1.00042511  1.00139781  0.59891379  1
  Sc  Sc6  1  0.49989392  1.00006273  0.70177737  1
  Sc  Sc7  1  0.50151367  0.49935390  0.59867813  1
  Ti  Ti8  1  1.00365488  0.99145433  0.39286704  1
  Ti  Ti9  1  0.50076053  -0.00095030  0.49652715  1
  Ti  Ti10  1  1.00052473  0.50049304  0.70654352  1
  Ti  Ti11  1  0.50083571  0.49995709  0.79863412  1
  Ni  Ni12  1  -0.00363285  -0.00156779  1.00457563  1
  Ni  Ni13  1  0.02053457  0.48744668  0.29582734  1
  Ni  Ni14  1  0.47273800  0.49103376  0.20151885  1
  Ni  Ni15  1  0.00296866  0.99924661  0.79939165  1
  Mo  Mo16  1  0.98311471  0.53787501  0.10812167  1
  Mo  Mo17  1  0.00518971  0.03495356  0.20502822  1
  Mo  Mo18  1  0.52247543  -0.03555081  0.29354647  1
  Mo  Mo19  1  0.01725488  0.51680961  0.49927496  1
  C  C20  1  0.99475110  -0.00360996  0.10295277  1
  C  C21  1  -0.00242835  0.49185257  1.01102127  1
  C  C22  1  0.49943755  0.00052685  1.00308887  1
  C  C23  1  0.50219777  0.51132577  0.11086717  1
  C  C24  1  0.99902744  -0.00130013  0.29689528  1
  C  C25  1  0.01494767  0.49704153  0.20143341  1
  C  C26  1  0.49898545  1.01892397  0.20439882  1
  C  C27  1  0.49570895  0.50120024  0.29005775  1
  C  C28  1  0.99885367  0.98675835  0.49111879  1
  C  C29  1  0.00262513  0.49068553  0.39314809  1
  C  C30  1  0.50102697  -0.00773334  0.39344726  1
  C  C31  1  0.48905786  0.49525721  0.49376711  1
  C  C32  1  0.99933449  1.00015045  0.70611624  1
  C  C33  1  0.99987548  0.49957763  0.59212924  1
  C  C34  1  0.50059826  -0.00126094  0.59049661  1
  C  C35  1  0.50006313  0.50008993  0.70382728  1
  C  C36  1  0.99759042  -0.00195124  0.90623930  1
  C  C37  1  -0.00186538  0.49944546  0.79906676  1
  C  C38  1  0.49480758  -0.00035784  0.80206398  1
  C  C39  1  0.49737638  0.49973550  0.89996115  1
