# generated using pymatgen
data_HfTiVCoMoC5
_symmetry_space_group_name_H-M   'P 1'
_cell_length_a   4.37675034
_cell_length_b   4.37351648
_cell_length_c   21.28934138
_cell_angle_alpha   90.11552642
_cell_angle_beta   90.15427726
_cell_angle_gamma   89.96452017
_symmetry_Int_Tables_number   1
_chemical_formula_structural   HfTiVCoMoC5
_chemical_formula_sum   'Hf4 Ti4 V4 Co4 Mo4 C20'
_cell_volume   407.51371394
_cell_formula_units_Z   4
loop_
 _symmetry_equiv_pos_site_id
 _symmetry_equiv_pos_as_xyz
  1  'x, y, z'
loop_
 _atom_site_type_symbol
 _atom_site_label
 _atom_site_symmetry_multiplicity
 _atom_site_fract_x
 _atom_site_fract_y
 _atom_site_fract_z
 _atom_site_occupancy
  Hf  Hf0  1  0.49772884  0.99191348  0.48989413  1
  Hf  Hf1  1  -0.00290393  0.49964940  0.69794623  1
  Hf  Hf2  1  -0.00323572  1.00210514  0.80767714  1
  Hf  Hf3  1  0.49716705  0.50164630  0.80504066  1
  Ti  Ti4  1  0.00126631  0.49903165  0.10270150  1
  Ti  Ti5  1  0.50178891  1.00138327  0.10448793  1
  Ti  Ti6  1  -0.00080396  0.49527567  0.49152788  1
  Ti  Ti7  1  0.49680778  0.49618451  0.59542890  1
  V  V8  1  1.00459295  1.00717226  0.00267161  1
  V  V9  1  0.51346589  0.51690679  0.20463831  1
  V  V10  1  -0.02045533  1.00284141  0.39103933  1
  V  V11  1  -0.00123733  0.51602296  0.91154721  1
  Co  Co12  1  0.46430634  0.04368827  0.29859923  1
  Co  Co13  1  0.54603835  0.46467257  0.39257009  1
  Co  Co14  1  0.51324875  -0.01383161  0.69601626  1
  Co  Co15  1  0.51747716  0.97839013  0.91572402  1
  Mo  Mo16  1  0.50418338  0.49418168  1.00266613  1
  Mo  Mo17  1  0.01108434  -0.01242124  0.20196230  1
  Mo  Mo18  1  1.03144594  0.51228420  0.29917027  1
  Mo  Mo19  1  1.01749745  0.00217488  0.59675585  1
  C  C20  1  0.00061872  0.00072247  0.10041012  1
  C  C21  1  -0.00160986  0.49869448  1.00475717  1
  C  C22  1  0.49292181  1.00283448  0.00346341  1
  C  C23  1  0.49843547  0.50098034  0.10839336  1
  C  C24  1  1.02611940  0.99842995  0.29948723  1
  C  C25  1  0.99315698  0.50390564  0.20148547  1
  C  C26  1  0.50670803  0.99681809  0.20900821  1
  C  C27  1  0.50589208  0.47446431  0.29962354  1
  C  C28  1  0.99798120  -0.00596877  0.49092923  1
  C  C29  1  0.96671731  0.50068301  0.39331505  1
  C  C30  1  0.50371309  0.01118159  0.38496115  1
  C  C31  1  0.49579748  0.49237912  0.48886663  1
  C  C32  1  0.97164136  1.00001545  0.69417692  1
  C  C33  1  0.99508230  0.49482821  0.59114086  1
  C  C34  1  0.48871247  -0.00231993  0.60143059  1
  C  C35  1  0.49566595  0.51847466  0.69472228  1
  C  C36  1  0.98509491  0.99709800  0.91174138  1
  C  C37  1  -0.00238946  0.50025295  0.81043927  1
  C  C38  1  0.49580822  0.00213736  0.79402063  1
  C  C39  1  0.49366565  0.51538556  0.90919276  1
