# generated using pymatgen
data_HfMgTiVMoC5
_symmetry_space_group_name_H-M   'P 1'
_cell_length_a   4.39766368
_cell_length_b   4.40222351
_cell_length_c   22.04471359
_cell_angle_alpha   90.05062349
_cell_angle_beta   90.05855689
_cell_angle_gamma   90.00706855
_symmetry_Int_Tables_number   1
_chemical_formula_structural   HfMgTiVMoC5
_chemical_formula_sum   'Hf4 Mg4 Ti4 V4 Mo4 C20'
_cell_volume   426.77420490
_cell_formula_units_Z   4
loop_
 _symmetry_equiv_pos_site_id
 _symmetry_equiv_pos_as_xyz
  1  'x, y, z'
loop_
 _atom_site_type_symbol
 _atom_site_label
 _atom_site_symmetry_multiplicity
 _atom_site_fract_x
 _atom_site_fract_y
 _atom_site_fract_z
 _atom_site_occupancy
  Hf  Hf0  1  0.50170884  1.00015009  0.09987155  1
  Hf  Hf1  1  0.50166908  0.49588537  0.99705338  1
  Hf  Hf2  1  1.00016485  0.00300852  0.20274184  1
  Hf  Hf3  1  0.50778205  1.00970110  0.69947231  1
  Mg  Mg4  1  0.50149809  -0.00058881  0.50112709  1
  Mg  Mg5  1  0.49698321  0.49248983  0.39848423  1
  Mg  Mg6  1  0.50553280  0.50329959  0.59605753  1
  Mg  Mg7  1  -0.01204833  0.49119735  0.90063492  1
  Ti  Ti8  1  0.00222256  0.50137126  0.10050617  1
  Ti  Ti9  1  1.00056310  0.50156274  0.30332814  1
  Ti  Ti10  1  0.50146842  1.00131131  0.30285962  1
  Ti  Ti11  1  0.00578775  0.00370787  0.59549613  1
  V  V12  1  -0.00176942  -0.01141807  -0.00352451  1
  V  V13  1  0.49579502  0.50474186  0.20483771  1
  V  V14  1  0.03009162  0.49416621  0.49814967  1
  V  V15  1  -0.00237852  -0.01729772  0.80397243  1
  Mo  Mo16  1  -0.01715267  0.97938480  0.40536726  1
  Mo  Mo17  1  -0.00217826  0.52323967  0.69268288  1
  Mo  Mo18  1  0.46731475  0.98429521  0.89572815  1
  Mo  Mo19  1  0.46572559  0.51190221  0.80272083  1
  C  C20  1  1.00215478  0.00393698  0.09482277  1
  C  C21  1  1.00241012  0.50530393  1.00276181  1
  C  C22  1  0.51052493  -0.00320796  -0.00564109  1
  C  C23  1  0.50324864  0.50013715  0.10653137  1
  C  C24  1  1.00535963  1.00453121  0.30535232  1
  C  C25  1  1.00651405  0.50246630  0.20234153  1
  C  C26  1  0.50108525  0.99741184  0.20295023  1
  C  C27  1  0.50268567  0.49916069  0.29432605  1
  C  C28  1  0.99891908  0.00778305  0.49854845  1
  C  C29  1  -0.00214886  0.50694308  0.40333725  1
  C  C30  1  0.51756403  -0.00429128  0.39606525  1
  C  C31  1  0.45116100  0.50060322  0.49743479  1
  C  C32  1  1.00906915  0.99867045  0.70319516  1
  C  C33  1  0.00427672  0.50153598  0.59938382  1
  C  C34  1  0.50756710  1.00298718  0.60133595  1
  C  C35  1  0.51458168  0.50621972  0.70441492  1
  C  C36  1  0.00341426  0.99450322  0.89888688  1
  C  C37  1  0.00284765  0.50616695  0.79717007  1
  C  C38  1  0.51812639  1.00178352  0.80374944  1
  C  C39  1  0.49564911  0.49761020  0.89580858  1
