# generated using pymatgen
data_HfTiMnVMoC5
_symmetry_space_group_name_H-M   'P 1'
_cell_length_a   4.39872328
_cell_length_b   4.41210739
_cell_length_c   21.34655872
_cell_angle_alpha   90.77407809
_cell_angle_beta   90.12781072
_cell_angle_gamma   90.26726227
_symmetry_Int_Tables_number   1
_chemical_formula_structural   HfTiMnVMoC5
_chemical_formula_sum   'Hf4 Ti4 Mn4 V4 Mo4 C20'
_cell_volume   414.24291094
_cell_formula_units_Z   4
loop_
 _symmetry_equiv_pos_site_id
 _symmetry_equiv_pos_as_xyz
  1  'x, y, z'
loop_
 _atom_site_type_symbol
 _atom_site_label
 _atom_site_symmetry_multiplicity
 _atom_site_fract_x
 _atom_site_fract_y
 _atom_site_fract_z
 _atom_site_occupancy
  Hf  Hf0  1  0.00232126  1.01129552  0.39630174  1
  Hf  Hf1  1  0.00331129  0.51718973  0.50244688  1
  Hf  Hf2  1  -0.00790091  0.53453753  0.70791830  1
  Hf  Hf3  1  0.49022933  -0.04069086  0.89852444  1
  Ti  Ti4  1  0.49190143  0.97366548  0.10020751  1
  Ti  Ti5  1  0.49762927  0.46676596  0.00261000  1
  Ti  Ti6  1  0.49923847  1.00325901  0.29307419  1
  Ti  Ti7  1  0.50599851  0.02164147  0.50498520  1
  Mn  Mn8  1  -0.04251802  0.04540883  0.19466161  1
  Mn  Mn9  1  0.04936208  0.99310743  0.60616063  1
  Mn  Mn10  1  -0.03635628  1.06253914  0.80095450  1
  Mn  Mn11  1  0.46510808  0.43061760  0.80569752  1
  V  V12  1  0.00253341  0.46831515  0.09820131  1
  V  V13  1  0.51479833  0.48495503  0.19389571  1
  V  V14  1  0.48772893  0.03995048  0.70205451  1
  V  V15  1  -0.00989005  0.45564108  0.90310230  1
  Mo  Mo16  1  0.98815621  0.94988604  0.00485851  1
  Mo  Mo17  1  -0.00813850  0.52413622  0.28643520  1
  Mo  Mo18  1  0.49353875  0.50377916  0.38998660  1
  Mo  Mo19  1  0.50861468  0.53956999  0.60807362  1
  C  C20  1  1.00019154  -0.01907784  0.10084565  1
  C  C21  1  1.00103416  0.46957410  0.99993416  1
  C  C22  1  0.50215677  -0.03115511  1.00234346  1
  C  C23  1  0.49532520  0.48064509  0.10052861  1
  C  C24  1  0.00626062  1.00090971  0.28815169  1
  C  C25  1  0.00750016  0.46970280  0.19206470  1
  C  C26  1  0.53237609  -0.00797733  0.19690155  1
  C  C27  1  0.50463200  0.50507953  0.29259216  1
  C  C28  1  1.00453148  1.02032243  0.50927677  1
  C  C29  1  1.01057348  0.51107906  0.39299696  1
  C  C30  1  0.50310999  0.01590234  0.39837029  1
  C  C31  1  0.50457766  0.51834166  0.50082785  1
  C  C32  1  1.00066842  0.03074088  0.70531784  1
  C  C33  1  0.99644533  0.56240506  0.60498928  1
  C  C34  1  0.47570931  0.03067103  0.60625682  1
  C  C35  1  0.49479623  0.52227812  0.70726077  1
  C  C36  1  0.99236305  0.97664855  0.89739253  1
  C  C37  1  1.03898546  0.48219733  0.81045304  1
  C  C38  1  0.53647202  1.01384010  0.79524140  1
  C  C39  1  0.50115917  0.46558174  0.89821481  1
