# generated using pymatgen
data_HfTiVNiMoC5
_symmetry_space_group_name_H-M   'P 1'
_cell_length_a   4.36724515
_cell_length_b   4.37126312
_cell_length_c   21.49235262
_cell_angle_alpha   90.04199564
_cell_angle_beta   89.96909480
_cell_angle_gamma   90.01188016
_symmetry_Int_Tables_number   1
_chemical_formula_structural   HfTiVNiMoC5
_chemical_formula_sum   'Hf4 Ti4 V4 Ni4 Mo4 C20'
_cell_volume   410.29694942
_cell_formula_units_Z   4
loop_
 _symmetry_equiv_pos_site_id
 _symmetry_equiv_pos_as_xyz
  1  'x, y, z'
loop_
 _atom_site_type_symbol
 _atom_site_label
 _atom_site_symmetry_multiplicity
 _atom_site_fract_x
 _atom_site_fract_y
 _atom_site_fract_z
 _atom_site_occupancy
  Hf  Hf0  1  0.49484481  0.49777885  0.19947401  1
  Hf  Hf1  1  -0.00026305  0.50089109  0.69789720  1
  Hf  Hf2  1  0.49960173  1.00081739  0.69651438  1
  Hf  Hf3  1  0.49884776  0.50209124  0.81032313  1
  Ti  Ti4  1  0.00153044  0.50212252  0.30282678  1
  Ti  Ti5  1  1.00317861  0.50004221  0.49167461  1
  Ti  Ti6  1  -0.00080394  0.99989125  0.58730376  1
  Ti  Ti7  1  0.49735356  1.00512631  0.91166143  1
  V  V8  1  -0.00211861  0.98355059  1.00314661  1
  V  V9  1  0.50178147  0.00415921  0.30863283  1
  V  V10  1  1.01080102  0.99782025  0.39961610  1
  V  V11  1  0.50584051  0.49856988  0.39932201  1
  Ni  Ni12  1  0.00732837  0.45793832  0.08989793  1
  Ni  Ni13  1  0.52361500  0.50784898  1.00344667  1
  Ni  Ni14  1  0.50161308  1.00120827  0.49038668  1
  Ni  Ni15  1  -0.00341383  0.50012610  0.91229784  1
  Mo  Mo16  1  0.48890252  -0.00498879  0.09608641  1
  Mo  Mo17  1  -0.01521154  0.98717838  0.19563323  1
  Mo  Mo18  1  0.49949055  0.49425641  0.58410892  1
  Mo  Mo19  1  -0.00219671  0.00476623  0.81453020  1
  C  C20  1  -0.00172683  0.00912633  0.10060585  1
  C  C21  1  0.98837386  0.52035519  1.00284547  1
  C  C22  1  0.49632907  -0.00101876  0.00453609  1
  C  C23  1  0.49785696  0.49789330  0.09493229  1
  C  C24  1  1.00153139  1.00359537  0.30326075  1
  C  C25  1  -0.00234275  0.50729033  0.20020726  1
  C  C26  1  0.50450880  0.00052344  0.20491162  1
  C  C27  1  0.50020072  0.50101275  0.30557924  1
  C  C28  1  0.00292608  0.00025519  0.49077609  1
  C  C29  1  0.00153030  0.50399938  0.39764896  1
  C  C30  1  0.50231414  1.00183557  0.39760552  1
  C  C31  1  0.50318112  0.49990146  0.49147590  1
  C  C32  1  -0.00012026  1.00068816  0.70177171  1
  C  C33  1  0.99919790  0.50080568  0.59132301  1
  C  C34  1  0.49852903  0.00186897  0.58859027  1
  C  C35  1  0.49980999  0.50125888  0.69381174  1
  C  C36  1  -0.00053746  1.00278740  0.90752768  1
  C  C37  1  -0.00084703  0.49984079  0.80819975  1
  C  C38  1  0.50086524  0.00249375  0.80642875  1
  C  C39  1  0.50092586  0.50210821  0.91311291  1
