# generated using pymatgen
data_HfScTiVMoC5
_symmetry_space_group_name_H-M   'P 1'
_cell_length_a   4.45051171
_cell_length_b   4.45387990
_cell_length_c   22.13900802
_cell_angle_alpha   90.01877256
_cell_angle_beta   89.91772995
_cell_angle_gamma   90.01256196
_symmetry_Int_Tables_number   1
_chemical_formula_structural   HfScTiVMoC5
_chemical_formula_sum   'Hf4 Sc4 Ti4 V4 Mo4 C20'
_cell_volume   438.83991899
_cell_formula_units_Z   4
loop_
 _symmetry_equiv_pos_site_id
 _symmetry_equiv_pos_as_xyz
  1  'x, y, z'
loop_
 _atom_site_type_symbol
 _atom_site_label
 _atom_site_symmetry_multiplicity
 _atom_site_fract_x
 _atom_site_fract_y
 _atom_site_fract_z
 _atom_site_occupancy
  Hf  Hf0  1  0.50070160  0.49823417  0.19290208  1
  Hf  Hf1  1  -0.00526550  0.99950798  0.40556324  1
  Hf  Hf2  1  0.49808369  0.99945675  0.90018671  1
  Hf  Hf3  1  0.49843635  0.50141573  0.79841347  1
  Sc  Sc4  1  0.00131859  1.00051307  0.19369135  1
  Sc  Sc5  1  -0.00105479  0.49895038  0.29963219  1
  Sc  Sc6  1  0.49878446  -0.00088181  0.29867236  1
  Sc  Sc7  1  0.49629865  0.50149816  0.40534362  1
  Ti  Ti8  1  -0.00111083  1.00184172  1.00005117  1
  Ti  Ti9  1  0.50049009  0.49919732  1.00043420  1
  Ti  Ti10  1  0.50222991  0.50099861  0.60205640  1
  Ti  Ti11  1  0.99833446  0.49966215  0.90083040  1
  V  V12  1  0.00311085  0.51409316  0.09332496  1
  V  V13  1  0.51113500  -0.01283990  0.09356309  1
  V  V14  1  0.99001211  0.50719486  0.50683805  1
  V  V15  1  0.00035790  0.00947747  0.79875644  1
  Mo  Mo16  1  0.47566908  1.02235909  0.50582844  1
  Mo  Mo17  1  0.01604153  0.01396759  0.60306337  1
  Mo  Mo18  1  0.01007621  0.52120761  0.69706698  1
  Mo  Mo19  1  0.54382920  0.01014685  0.69867774  1
  C  C20  1  0.99025098  0.98820333  0.09142917  1
  C  C21  1  -0.00149125  0.49630664  -0.00218020  1
  C  C22  1  0.49706250  0.00067455  1.00166647  1
  C  C23  1  0.49517504  0.50623066  0.09200155  1
  C  C24  1  0.99885435  -0.00144120  0.30310441  1
  C  C25  1  1.00033184  0.49938241  0.18545154  1
  C  C26  1  0.50013835  -0.00011000  0.18621656  1
  C  C27  1  0.49918047  0.49919316  0.29664740  1
  C  C28  1  -0.00187995  0.98320165  0.51092470  1
  C  C29  1  0.99682922  0.49825522  0.41477869  1
  C  C30  1  0.49551299  0.99995305  0.41232434  1
  C  C31  1  0.50507973  0.49325331  0.50911097  1
  C  C32  1  0.00640612  0.99009946  0.70518015  1
  C  C33  1  0.99936627  0.49179331  0.60267840  1
  C  C34  1  0.49830238  0.99379025  0.60555258  1
  C  C35  1  0.49568892  0.49258242  0.69751159  1
  C  C36  1  0.99807613  -0.00566583  0.89597902  1
  C  C37  1  -0.00203182  0.48714070  0.79903164  1
  C  C38  1  0.49610651  1.00038567  0.79579129  1
  C  C39  1  0.49794632  0.49933044  0.90149811  1
