# generated using pymatgen
data_HfTiNbCoNiC5
_symmetry_space_group_name_H-M   'P 1'
_cell_length_a   4.37394189
_cell_length_b   4.37879942
_cell_length_c   21.69048443
_cell_angle_alpha   89.97586410
_cell_angle_beta   90.02076391
_cell_angle_gamma   89.97714623
_symmetry_Int_Tables_number   1
_chemical_formula_structural   HfTiNbCoNiC5
_chemical_formula_sum   'Hf4 Ti4 Nb4 Co4 Ni4 C20'
_cell_volume   415.42938302
_cell_formula_units_Z   4
loop_
 _symmetry_equiv_pos_site_id
 _symmetry_equiv_pos_as_xyz
  1  'x, y, z'
loop_
 _atom_site_type_symbol
 _atom_site_label
 _atom_site_symmetry_multiplicity
 _atom_site_fract_x
 _atom_site_fract_y
 _atom_site_fract_z
 _atom_site_occupancy
  Hf  Hf0  1  0.00711619  0.49626346  0.09877513  1
  Hf  Hf1  1  0.50714766  0.99615301  0.09638758  1
  Hf  Hf2  1  0.49611340  -0.00913065  0.29833350  1
  Hf  Hf3  1  0.49674137  0.00266822  0.50099285  1
  Ti  Ti4  1  0.50110110  0.49742386  0.40304947  1
  Ti  Ti5  1  0.00081522  0.50099196  0.69978069  1
  Ti  Ti6  1  0.99943957  0.49466012  0.90055519  1
  Ti  Ti7  1  0.50694231  0.00203213  0.90109460  1
  Nb  Nb8  1  -0.00076769  0.49205905  0.29961119  1
  Nb  Nb9  1  0.50031015  1.00086777  0.70208146  1
  Nb  Nb10  1  0.50135384  0.50216161  0.60024783  1
  Nb  Nb11  1  -0.00024966  -0.00023241  0.80232490  1
  Co  Co12  1  0.04356681  0.95295667  0.99620800  1
  Co  Co13  1  0.53925201  0.46141225  0.19976499  1
  Co  Co14  1  0.98087652  0.94860192  0.40453552  1
  Co  Co15  1  0.47716859  0.48171467  0.80336889  1
  Ni  Ni16  1  0.48785691  0.51321589  -0.00948121  1
  Ni  Ni17  1  0.98592776  1.01758941  0.20277012  1
  Ni  Ni18  1  -0.00000951  0.51152620  0.50277860  1
  Ni  Ni19  1  0.99947618  0.00416310  0.59900922  1
  C  C20  1  0.00543172  -0.00227503  0.08856852  1
  C  C21  1  -0.00098070  0.53873905  -0.00580208  1
  C  C22  1  0.46474844  1.00160246  0.99389570  1
  C  C23  1  0.50579606  0.49785105  0.10814908  1
  C  C24  1  0.99779553  -0.00642832  0.30584910  1
  C  C25  1  0.96107858  0.50614467  0.20280855  1
  C  C26  1  0.49640616  0.04508278  0.19827719  1
  C  C27  1  0.49948537  0.49221208  0.29676964  1
  C  C28  1  0.99825712  0.00233903  0.49552133  1
  C  C29  1  1.00242233  0.53734888  0.40603077  1
  C  C30  1  0.52269431  -0.00014102  0.39994182  1
  C  C31  1  0.49704208  0.50177332  0.50057069  1
  C  C32  1  -0.00073359  -0.00004152  0.69744453  1
  C  C33  1  0.00106211  0.50144647  0.59721276  1
  C  C34  1  0.50048377  1.00243594  0.60329456  1
  C  C35  1  0.50037720  0.50108527  0.70652514  1
  C  C36  1  0.99942057  0.00041378  0.90502608  1
  C  C37  1  0.01830357  0.50059306  0.80006724  1
  C  C38  1  0.50033055  0.01515599  0.80299909  1
  C  C39  1  0.49996137  0.50072697  0.89468510  1
