# generated using pymatgen
data_HfScTiNbCoC5
_symmetry_space_group_name_H-M   'P 1'
_cell_length_a   4.48550550
_cell_length_b   4.49968689
_cell_length_c   22.03656445
_cell_angle_alpha   89.86169875
_cell_angle_beta   90.20666406
_cell_angle_gamma   89.97581123
_symmetry_Int_Tables_number   1
_chemical_formula_structural   HfScTiNbCoC5
_chemical_formula_sum   'Hf4 Sc4 Ti4 Nb4 Co4 C20'
_cell_volume   444.76791066
_cell_formula_units_Z   4
loop_
 _symmetry_equiv_pos_site_id
 _symmetry_equiv_pos_as_xyz
  1  'x, y, z'
loop_
 _atom_site_type_symbol
 _atom_site_label
 _atom_site_symmetry_multiplicity
 _atom_site_fract_x
 _atom_site_fract_y
 _atom_site_fract_z
 _atom_site_occupancy
  Hf  Hf0  1  1.01270448  0.49701979  0.10294816  1
  Hf  Hf1  1  0.50087027  1.00897207  0.28968642  1
  Hf  Hf2  1  0.50171240  0.50083806  0.60147867  1
  Hf  Hf3  1  0.50846274  0.50343674  0.80563365  1
  Sc  Sc4  1  0.50861062  0.50846878  1.00249200  1
  Sc  Sc5  1  0.49987250  1.00257513  0.49738222  1
  Sc  Sc6  1  0.50464373  0.00023388  0.70390659  1
  Sc  Sc7  1  0.51018060  0.01363495  0.90726352  1
  Ti  Ti8  1  -0.00095338  0.50174599  0.29113744  1
  Ti  Ti9  1  0.00183986  1.00046596  0.60363895  1
  Ti  Ti10  1  0.00500154  0.49679474  0.70532079  1
  Ti  Ti11  1  0.00805988  -0.00333127  0.80670560  1
  Nb  Nb12  1  0.51613415  1.00453857  0.10249267  1
  Nb  Nb13  1  -0.00215368  1.00449013  0.39400801  1
  Nb  Nb14  1  0.99986587  0.50277561  0.49706425  1
  Nb  Nb15  1  0.49748806  0.50485901  0.39352192  1
  Co  Co16  1  1.03423832  0.02918564  0.00151680  1
  Co  Co17  1  0.02018504  0.95020203  0.19729496  1
  Co  Co18  1  0.52776844  0.54263429  0.19857076  1
  Co  Co19  1  1.04028144  0.53762748  0.90393359  1
  C  C20  1  1.00266348  -0.00386820  0.09667147  1
  C  C21  1  -0.00094444  0.42931126  -0.00832985  1
  C  C22  1  0.44617319  0.00181116  0.00761176  1
  C  C23  1  0.50991122  0.49677034  0.10963598  1
  C  C24  1  -0.00183455  1.00632671  0.28818599  1
  C  C25  1  0.94635701  0.53328032  0.20035415  1
  C  C26  1  0.43249017  0.94914302  0.19475083  1
  C  C27  1  0.49615035  0.50447845  0.28900070  1
  C  C28  1  1.00004284  1.00293333  0.49817420  1
  C  C29  1  0.99576494  0.50510917  0.39316563  1
  C  C30  1  0.49678797  0.00308480  0.39282431  1
  C  C31  1  0.49920924  0.50236867  0.49449144  1
  C  C32  1  1.00425628  0.00135819  0.70373808  1
  C  C33  1  1.00154295  0.50105477  0.60207423  1
  C  C34  1  0.50174546  0.00085964  0.59962543  1
  C  C35  1  0.50169829  0.50072950  0.70289339  1
  C  C36  1  1.00428773  0.93965822  0.91121118  1
  C  C37  1  0.00675313  0.50202502  0.80928022  1
  C  C38  1  0.51186195  1.00444089  0.80565314  1
  C  C39  1  0.44974145  0.51074049  0.90388655  1
