# generated using pymatgen
data_HfMgTiNbCrC5
_symmetry_space_group_name_H-M   'P 1'
_cell_length_a   4.42792917
_cell_length_b   4.43312301
_cell_length_c   22.16783437
_cell_angle_alpha   89.96724288
_cell_angle_beta   89.99467456
_cell_angle_gamma   90.00042085
_symmetry_Int_Tables_number   1
_chemical_formula_structural   HfMgTiNbCrC5
_chemical_formula_sum   'Hf4 Mg4 Ti4 Nb4 Cr4 C20'
_cell_volume   435.14464449
_cell_formula_units_Z   4
loop_
 _symmetry_equiv_pos_site_id
 _symmetry_equiv_pos_as_xyz
  1  'x, y, z'
loop_
 _atom_site_type_symbol
 _atom_site_label
 _atom_site_symmetry_multiplicity
 _atom_site_fract_x
 _atom_site_fract_y
 _atom_site_fract_z
 _atom_site_occupancy
  Hf  Hf0  1  -0.00071220  0.50028638  0.10346037  1
  Hf  Hf1  1  0.99866402  -0.00045950  0.40240098  1
  Hf  Hf2  1  0.50214472  0.49618743  0.40431551  1
  Hf  Hf3  1  0.50023967  0.50033017  0.79679196  1
  Mg  Mg4  1  0.50012937  0.49968754  -0.00391824  1
  Mg  Mg5  1  -0.00111226  0.50208348  0.30355174  1
  Mg  Mg6  1  0.99959823  0.50011436  0.89605827  1
  Mg  Mg7  1  0.49974787  0.99996768  0.89760735  1
  Ti  Ti8  1  0.49697793  -0.00181912  0.29902672  1
  Ti  Ti9  1  0.49986122  0.49740487  0.20809350  1
  Ti  Ti10  1  0.50285811  0.50067211  0.59574740  1
  Ti  Ti11  1  -0.00054363  1.00204061  0.79823234  1
  Nb  Nb12  1  1.00014932  0.99966250  -0.00985468  1
  Nb  Nb13  1  0.49828338  0.99983190  0.10438666  1
  Nb  Nb14  1  0.99860246  1.00710228  0.59590268  1
  Nb  Nb15  1  0.49983937  0.99992117  0.69480075  1
  Cr  Cr16  1  0.98358923  1.02152144  0.20748857  1
  Cr  Cr17  1  1.02886182  0.52712119  0.50496025  1
  Cr  Cr18  1  0.47187824  0.96863984  0.50242000  1
  Cr  Cr19  1  1.00494962  0.51511874  0.69468213  1
  C  C20  1  1.00088885  -0.00039041  0.11083702  1
  C  C21  1  1.00031954  0.49981955  0.00146410  1
  C  C22  1  0.50167396  0.99981745  1.00584743  1
  C  C23  1  0.49899319  0.50148978  0.10825760  1
  C  C24  1  1.00069847  1.00077158  0.29620638  1
  C  C25  1  1.00085114  0.47735402  0.20440923  1
  C  C26  1  0.51391026  -0.00285443  0.20578169  1
  C  C27  1  0.49906621  0.50013859  0.30174014  1
  C  C28  1  0.01370861  0.98670476  0.50149124  1
  C  C29  1  0.00069013  0.49822191  0.41275016  1
  C  C30  1  0.49929270  -0.00284848  0.40614108  1
  C  C31  1  0.48739119  0.51535256  0.50433026  1
  C  C32  1  1.00037769  0.98596421  0.69664754  1
  C  C33  1  0.99999748  0.50229947  0.59807862  1
  C  C34  1  0.50211120  1.00400645  0.59207235  1
  C  C35  1  0.49413764  0.50128943  0.69112325  1
  C  C36  1  -0.00000278  0.99998163  0.89526095  1
  C  C37  1  1.00034361  0.49636630  0.78495392  1
  C  C38  1  0.50130081  -0.00015494  0.79220731  1
  C  C39  1  0.49955497  0.50008246  0.89424759  1
