# generated using pymatgen
data_HfTiMnNbCrC5
_symmetry_space_group_name_H-M   'P 1'
_cell_length_a   4.38582196
_cell_length_b   4.42220019
_cell_length_c   21.54834944
_cell_angle_alpha   90.36838973
_cell_angle_beta   90.21224166
_cell_angle_gamma   89.87712381
_symmetry_Int_Tables_number   1
_chemical_formula_structural   HfTiMnNbCrC5
_chemical_formula_sum   'Hf4 Ti4 Mn4 Nb4 Cr4 C20'
_cell_volume   417.91741895
_cell_formula_units_Z   4
loop_
 _symmetry_equiv_pos_site_id
 _symmetry_equiv_pos_as_xyz
  1  'x, y, z'
loop_
 _atom_site_type_symbol
 _atom_site_label
 _atom_site_symmetry_multiplicity
 _atom_site_fract_x
 _atom_site_fract_y
 _atom_site_fract_z
 _atom_site_occupancy
  Hf  Hf0  1  1.00744019  0.51427164  0.10850769  1
  Hf  Hf1  1  -0.01921873  0.97549542  0.39098931  1
  Hf  Hf2  1  -0.01085422  0.48650852  0.49183548  1
  Hf  Hf3  1  0.99705967  0.49916074  0.90201850  1
  Ti  Ti4  1  0.50988579  0.00455170  0.10688324  1
  Ti  Ti5  1  0.99732953  0.49905800  0.70140489  1
  Ti  Ti6  1  0.99783539  0.99940362  0.80189769  1
  Ti  Ti7  1  0.49687652  0.49959257  0.80144928  1
  Mn  Mn8  1  0.52852727  0.46271908  0.00704854  1
  Mn  Mn9  1  0.08200153  1.06653098  0.20524338  1
  Mn  Mn10  1  0.53150852  0.53379383  0.21507264  1
  Mn  Mn11  1  0.48488583  0.97064651  0.90213246  1
  Nb  Nb12  1  0.00292962  1.00207990  1.00331460  1
  Nb  Nb13  1  -0.00390705  0.99595845  0.59648483  1
  Nb  Nb14  1  0.49847642  1.00126768  0.70138946  1
  Nb  Nb15  1  0.49522485  0.49832501  0.59542408  1
  Cr  Cr16  1  0.04555513  0.46256944  0.29777612  1
  Cr  Cr17  1  0.47399805  1.03575583  0.29816206  1
  Cr  Cr18  1  0.49484972  -0.01812569  0.49047603  1
  Cr  Cr19  1  0.47166743  0.45657862  0.39383376  1
  C  C20  1  0.00961648  0.01136571  0.11135092  1
  C  C21  1  0.96684540  0.50579690  1.00457480  1
  C  C22  1  0.49823299  0.04723992  -0.00117764  1
  C  C23  1  0.50460687  0.51119555  0.09694327  1
  C  C24  1  1.00830429  0.99973308  0.28969741  1
  C  C25  1  0.98355242  0.48810971  0.20961522  1
  C  C26  1  0.49721430  -0.02513065  0.20636434  1
  C  C27  1  0.50793760  0.49839685  0.30100860  1
  C  C28  1  0.98152930  0.98760477  0.49536900  1
  C  C29  1  0.99449900  0.48015892  0.38754932  1
  C  C30  1  0.48444233  -0.00145550  0.39376547  1
  C  C31  1  0.48958189  0.50159443  0.48726885  1
  C  C32  1  0.99835580  0.99873016  0.70146807  1
  C  C33  1  0.99620488  0.49526794  0.59964644  1
  C  C34  1  0.49471806  0.99725744  0.59027273  1
  C  C35  1  0.49734632  0.50155176  0.70068455  1
  C  C36  1  0.01298691  1.00144270  0.90182160  1
  C  C37  1  -0.00354765  0.49844987  0.79834964  1
  C  C38  1  0.49935800  0.00402920  0.80752758  1
  C  C39  1  0.49691085  0.54926457  0.90675482  1
