# generated using pymatgen
data_HfTiNbCrMoC5
_symmetry_space_group_name_H-M   'P 1'
_cell_length_a   4.41340757
_cell_length_b   4.42008057
_cell_length_c   21.85316322
_cell_angle_alpha   90.01293807
_cell_angle_beta   90.04953415
_cell_angle_gamma   89.97576519
_symmetry_Int_Tables_number   1
_chemical_formula_structural   HfTiNbCrMoC5
_chemical_formula_sum   'Hf4 Ti4 Nb4 Cr4 Mo4 C20'
_cell_volume   426.30293126
_cell_formula_units_Z   4
loop_
 _symmetry_equiv_pos_site_id
 _symmetry_equiv_pos_as_xyz
  1  'x, y, z'
loop_
 _atom_site_type_symbol
 _atom_site_label
 _atom_site_symmetry_multiplicity
 _atom_site_fract_x
 _atom_site_fract_y
 _atom_site_fract_z
 _atom_site_occupancy
  Hf  Hf0  1  0.00873132  0.49735450  0.29531222  1
  Hf  Hf1  1  0.99875805  0.99864008  0.60486386  1
  Hf  Hf2  1  0.49834088  0.49822786  0.60515860  1
  Hf  Hf3  1  0.50214520  1.00076424  0.90118113  1
  Ti  Ti4  1  0.00106441  -0.00217564  0.00037617  1
  Ti  Ti5  1  0.00095455  0.49650917  0.09934584  1
  Ti  Ti6  1  0.50098317  -0.00202508  0.70613981  1
  Ti  Ti7  1  0.50110594  0.50456842  0.80233839  1
  Nb  Nb8  1  0.50223776  0.49823167  1.00251360  1
  Nb  Nb9  1  0.99604023  -0.00084205  0.19664978  1
  Nb  Nb10  1  1.00001466  0.49992715  0.49790476  1
  Nb  Nb11  1  0.49644068  -0.00098676  0.49349262  1
  Cr  Cr12  1  0.49801354  0.97892458  0.29408908  1
  Cr  Cr13  1  0.50768930  0.47783970  0.19791084  1
  Cr  Cr14  1  0.98640842  0.51024364  0.71020356  1
  Cr  Cr15  1  0.00060400  0.50930119  0.90076875  1
  Mo  Mo16  1  0.48593271  0.97751984  0.10345174  1
  Mo  Mo17  1  0.96350147  0.01424301  0.39379165  1
  Mo  Mo18  1  0.51965645  0.52741986  0.39227222  1
  Mo  Mo19  1  0.00745683  0.03212304  0.80039179  1
  C  C20  1  1.00582249  -0.00322255  0.09698279  1
  C  C21  1  1.00244802  0.49782650  -0.00434496  1
  C  C22  1  0.50332655  0.00085062  1.00600695  1
  C  C23  1  0.50288093  0.50171881  0.10634333  1
  C  C24  1  0.00726525  -0.00217629  0.29837223  1
  C  C25  1  0.99482308  0.49588078  0.19435852  1
  C  C26  1  0.50030618  0.01151792  0.20303131  1
  C  C27  1  0.50692465  0.51289218  0.29198894  1
  C  C28  1  0.99813962  0.99774722  0.49610180  1
  C  C29  1  1.00003245  0.49866127  0.39922014  1
  C  C30  1  0.49120914  1.00446419  0.38835341  1
  C  C31  1  0.49865126  0.49950496  0.49499202  1
  C  C32  1  1.00068034  0.98441508  0.70775913  1
  C  C33  1  0.99894262  0.49806016  0.60807200  1
  C  C34  1  0.49822204  0.99877530  0.60094273  1
  C  C35  1  0.51398147  0.49779647  0.70717975  1
  C  C36  1  0.00165650  -0.01289819  0.90060869  1
  C  C37  1  0.99840204  0.50141366  0.80437759  1
  C  C38  1  0.49567019  1.00426624  0.80031632  1
  C  C39  1  0.50363227  0.50075662  0.90126134  1
