# generated using pymatgen
data_HfTiNbVCrC5
_symmetry_space_group_name_H-M   'P 1'
_cell_length_a   4.37229939
_cell_length_b   4.37372653
_cell_length_c   21.70372440
_cell_angle_alpha   90.01595550
_cell_angle_beta   89.97377634
_cell_angle_gamma   89.99556695
_symmetry_Int_Tables_number   1
_chemical_formula_structural   HfTiNbVCrC5
_chemical_formula_sum   'Hf4 Ti4 Nb4 V4 Cr4 C20'
_cell_volume   415.04550907
_cell_formula_units_Z   4
loop_
 _symmetry_equiv_pos_site_id
 _symmetry_equiv_pos_as_xyz
  1  'x, y, z'
loop_
 _atom_site_type_symbol
 _atom_site_label
 _atom_site_symmetry_multiplicity
 _atom_site_fract_x
 _atom_site_fract_y
 _atom_site_fract_z
 _atom_site_occupancy
  Hf  Hf0  1  0.50041213  0.50098265  0.00703432  1
  Hf  Hf1  1  0.49776605  0.49887249  0.39680753  1
  Hf  Hf2  1  0.00069371  -0.00100759  0.58851779  1
  Hf  Hf3  1  0.50039541  0.00075084  0.90379993  1
  Ti  Ti4  1  0.49770472  0.00095778  0.11186648  1
  Ti  Ti5  1  1.00218470  0.49796515  0.29996654  1
  Ti  Ti6  1  0.50088041  0.00069814  0.49288813  1
  Ti  Ti7  1  0.00041914  0.99976827  0.80106340  1
  Nb  Nb8  1  1.00019118  0.49959107  0.10997083  1
  Nb  Nb9  1  0.99943087  0.49955130  0.69361953  1
  Nb  Nb10  1  0.49955296  -0.00005404  0.69348182  1
  Nb  Nb11  1  0.50033161  0.50009194  0.79760466  1
  V  V12  1  0.00067219  0.00289468  0.00681203  1
  V  V13  1  0.51701369  0.51834925  0.20764232  1
  V  V14  1  -0.00636066  -0.00487063  0.39586548  1
  V  V15  1  0.00309043  0.50214298  0.90365840  1
  Cr  Cr16  1  0.97521927  0.97989360  0.20817202  1
  Cr  Cr17  1  0.48256498  1.00224045  0.29746276  1
  Cr  Cr18  1  0.98641350  0.48597993  0.49398782  1
  Cr  Cr19  1  0.50158854  0.50061975  0.59005373  1
  C  C20  1  -0.00007292  0.00016996  0.10953924  1
  C  C21  1  0.99995389  0.49882853  1.00212000  1
  C  C22  1  0.50078582  1.00073365  0.01009267  1
  C  C23  1  0.49801726  0.49984540  0.11204202  1
  C  C24  1  1.01902857  1.00018960  0.29980648  1
  C  C25  1  0.99688865  0.51134423  0.20656839  1
  C  C26  1  0.51165977  -0.00030760  0.20847704  1
  C  C27  1  0.50063890  0.49553724  0.29613348  1
  C  C28  1  0.00254250  0.01307469  0.48641752  1
  C  C29  1  0.99764858  0.50441744  0.40116333  1
  C  C30  1  0.50491438  -0.00133101  0.39122286  1
  C  C31  1  0.50887604  0.50076783  0.50123811  1
  C  C32  1  -0.00046068  0.99967495  0.69902747  1
  C  C33  1  0.00209808  0.49919555  0.58829503  1
  C  C34  1  0.50066743  0.99726963  0.59119105  1
  C  C35  1  0.49962529  0.49963229  0.68861705  1
  C  C36  1  0.00024965  0.99689797  0.90651871  1
  C  C37  1  -0.00017391  0.49937629  0.80277364  1
  C  C38  1  0.50075339  -0.00010462  0.79816313  1
  C  C39  1  0.49692192  0.50058780  0.90062052  1
