# generated using pymatgen
data_HfTiNbCrCoC5
_symmetry_space_group_name_H-M   'P 1'
_cell_length_a   4.38861696
_cell_length_b   4.42331778
_cell_length_c   21.34439883
_cell_angle_alpha   90.05899462
_cell_angle_beta   89.93703310
_cell_angle_gamma   90.01846609
_symmetry_Int_Tables_number   1
_chemical_formula_structural   HfTiNbCrCoC5
_chemical_formula_sum   'Hf4 Ti4 Nb4 Cr4 Co4 C20'
_cell_volume   414.34226050
_cell_formula_units_Z   4
loop_
 _symmetry_equiv_pos_site_id
 _symmetry_equiv_pos_as_xyz
  1  'x, y, z'
loop_
 _atom_site_type_symbol
 _atom_site_label
 _atom_site_symmetry_multiplicity
 _atom_site_fract_x
 _atom_site_fract_y
 _atom_site_fract_z
 _atom_site_occupancy
  Hf  Hf0  1  0.50626148  0.50182797  0.59367367  1
  Hf  Hf1  1  1.00521977  0.50482976  0.91446984  1
  Hf  Hf2  1  0.50629886  1.00102449  0.91797723  1
  Hf  Hf3  1  0.50337068  0.50148419  0.80365670  1
  Ti  Ti4  1  0.98497923  -0.00670795  0.19785642  1
  Ti  Ti5  1  -0.00596112  0.49276595  0.29568402  1
  Ti  Ti6  1  0.49021910  0.48482713  0.19738788  1
  Ti  Ti7  1  0.49419841  0.49926994  0.38922933  1
  Nb  Nb8  1  0.50695922  1.00510944  0.48486848  1
  Nb  Nb9  1  1.00492314  1.00050588  0.59252013  1
  Nb  Nb10  1  0.50433525  1.00328931  0.69898155  1
  Nb  Nb11  1  0.00304548  1.00133170  0.80311087  1
  Cr  Cr12  1  0.99205566  0.53730047  0.10409738  1
  Cr  Cr13  1  0.51268921  0.46510802  0.01598889  1
  Cr  Cr14  1  0.46767440  0.97866709  0.29343064  1
  Cr  Cr15  1  0.02282648  0.98913676  0.39016155  1
  Co  Co16  1  1.03025863  0.05266677  1.01580550  1
  Co  Co17  1  0.46187845  0.95587648  0.10591411  1
  Co  Co18  1  0.98032313  0.53623976  0.47863670  1
  Co  Co19  1  1.01898231  0.54259993  0.69849136  1
  C  C20  1  0.01929010  -0.00915829  0.10046592  1
  C  C21  1  -0.01110515  0.46684715  1.01649923  1
  C  C22  1  0.48330904  0.01468726  0.02067830  1
  C  C23  1  0.50824780  0.53654817  0.10224978  1
  C  C24  1  1.00386884  -0.00420176  0.29803074  1
  C  C25  1  0.99031996  0.48986671  0.19559086  1
  C  C26  1  0.48885899  0.99261089  0.19662301  1
  C  C27  1  0.49549607  0.50795715  0.29355238  1
  C  C28  1  0.00793607  0.97919520  0.48584562  1
  C  C29  1  0.99737257  0.50522817  0.39429278  1
  C  C30  1  0.48873579  1.00333632  0.38470986  1
  C  C31  1  0.52483832  0.50163834  0.48777577  1
  C  C32  1  -0.00122119  0.96085886  0.69901030  1
  C  C33  1  1.00444220  0.49811673  0.60319192  1
  C  C34  1  0.50457146  0.00263147  0.59258509  1
  C  C35  1  0.48281852  0.49903796  0.69954859  1
  C  C36  1  1.00576622  1.00296664  0.91446260  1
  C  C37  1  1.00262582  0.50051818  0.79892903  1
  C  C38  1  0.50344470  0.00217313  0.80576910  1
  C  C39  1  0.50459940  0.50398512  0.91757371  1
