# generated using pymatgen
data_HfScTiNbCrC5
_symmetry_space_group_name_H-M   'P 1'
_cell_length_a   4.48292792
_cell_length_b   4.47514645
_cell_length_c   22.17186724
_cell_angle_alpha   89.98167918
_cell_angle_beta   90.02488694
_cell_angle_gamma   89.98862161
_symmetry_Int_Tables_number   1
_chemical_formula_structural   HfScTiNbCrC5
_chemical_formula_sum   'Hf4 Sc4 Ti4 Nb4 Cr4 C20'
_cell_volume   444.80658276
_cell_formula_units_Z   4
loop_
 _symmetry_equiv_pos_site_id
 _symmetry_equiv_pos_as_xyz
  1  'x, y, z'
loop_
 _atom_site_type_symbol
 _atom_site_label
 _atom_site_symmetry_multiplicity
 _atom_site_fract_x
 _atom_site_fract_y
 _atom_site_fract_z
 _atom_site_occupancy
  Hf  Hf0  1  0.49688682  0.00209161  0.29412057  1
  Hf  Hf1  1  0.49936622  0.00274120  0.49389669  1
  Hf  Hf2  1  0.50043685  0.00031016  0.70248968  1
  Hf  Hf3  1  1.00099373  -0.00150906  0.80899600  1
  Sc  Sc4  1  1.00183665  0.49911225  0.29516860  1
  Sc  Sc5  1  1.00221327  0.50055101  0.49550565  1
  Sc  Sc6  1  0.00029439  0.00028608  0.59920278  1
  Sc  Sc7  1  0.50068029  0.50054550  0.59906300  1
  Ti  Ti8  1  0.00216983  0.99941358  1.00340313  1
  Ti  Ti9  1  0.50178844  1.00389518  0.09669288  1
  Ti  Ti10  1  -0.00789606  0.99561911  0.39495982  1
  Ti  Ti11  1  -0.00046692  0.50006758  0.70197570  1
  Nb  Nb12  1  0.00170971  0.49957690  0.09837113  1
  Nb  Nb13  1  0.50302586  0.50298602  0.19422891  1
  Nb  Nb14  1  0.99885944  0.49832990  0.90957021  1
  Nb  Nb15  1  0.50061221  0.49813931  0.80998896  1
  Cr  Cr16  1  0.49290599  0.53304727  0.00102211  1
  Cr  Cr17  1  0.98674962  -0.01012467  0.19467719  1
  Cr  Cr18  1  0.54217869  0.52435721  0.39488713  1
  Cr  Cr19  1  0.50780431  0.97763589  0.91124438  1
  C  C20  1  1.00141707  1.00164552  0.10228732  1
  C  C21  1  1.00769015  0.50130541  0.00352047  1
  C  C22  1  0.50175718  -0.01511029  -0.00028604  1
  C  C23  1  0.50124687  0.50164847  0.09310230  1
  C  C24  1  -0.00134463  -0.00006040  0.28803815  1
  C  C25  1  1.00214505  0.51323888  0.19466923  1
  C  C26  1  0.51285389  1.00128128  0.19164974  1
  C  C27  1  0.50040093  0.50020153  0.29981469  1
  C  C28  1  0.99962987  0.00081081  0.49022993  1
  C  C29  1  -0.04566663  0.49373058  0.39460389  1
  C  C30  1  0.49215908  -0.02674738  0.39322840  1
  C  C31  1  0.50035293  0.50038838  0.48597556  1
  C  C32  1  0.00077620  1.00005581  0.70646338  1
  C  C33  1  0.00073108  0.50013983  0.60800416  1
  C  C34  1  0.50024886  -0.00002639  0.59891762  1
  C  C35  1  0.50107583  0.50042609  0.70844606  1
  C  C36  1  -0.00785827  0.99850225  0.90968770  1
  C  C37  1  0.00142399  0.49787282  0.80611016  1
  C  C38  1  0.50071351  -0.00208688  0.81468088  1
  C  C39  1  0.49972040  0.50922765  0.91116902  1
