# generated using pymatgen
data_HfTiNbCrNiC5
_symmetry_space_group_name_H-M   'P 1'
_cell_length_a   4.38057157
_cell_length_b   4.37848434
_cell_length_c   21.57377922
_cell_angle_alpha   89.98871942
_cell_angle_beta   89.98652037
_cell_angle_gamma   90.02261876
_symmetry_Int_Tables_number   1
_chemical_formula_structural   HfTiNbCrNiC5
_chemical_formula_sum   'Hf4 Ti4 Nb4 Cr4 Ni4 C20'
_cell_volume   413.79072967
_cell_formula_units_Z   4
loop_
 _symmetry_equiv_pos_site_id
 _symmetry_equiv_pos_as_xyz
  1  'x, y, z'
loop_
 _atom_site_type_symbol
 _atom_site_label
 _atom_site_symmetry_multiplicity
 _atom_site_fract_x
 _atom_site_fract_y
 _atom_site_fract_z
 _atom_site_occupancy
  Hf  Hf0  1  0.00009486  0.99962695  1.00648389  1
  Hf  Hf1  1  0.50061877  1.00062390  0.70218409  1
  Hf  Hf2  1  0.00000797  0.49984129  0.90654691  1
  Hf  Hf3  1  0.50035107  0.50028805  0.80787574  1
  Ti  Ti4  1  0.99756409  0.49909365  0.10522734  1
  Ti  Ti5  1  0.49756133  0.49975878  0.20214849  1
  Ti  Ti6  1  0.49963791  -0.00065694  0.48393405  1
  Ti  Ti7  1  1.00049377  0.50037105  0.70138354  1
  Nb  Nb8  1  -0.00625656  -0.00454618  0.20591424  1
  Nb  Nb9  1  1.00139176  0.50136019  0.48508790  1
  Nb  Nb10  1  -0.00049509  0.00202092  0.59327655  1
  Nb  Nb11  1  0.49901512  0.50190907  0.59160351  1
  Cr  Cr12  1  1.03461170  0.47278861  0.30120457  1
  Cr  Cr13  1  0.47264366  1.03017607  0.30048301  1
  Cr  Cr14  1  0.52996909  0.47369732  0.38859412  1
  Cr  Cr15  1  1.00461929  0.99804771  0.80474276  1
  Ni  Ni16  1  0.49886314  1.00278846  0.10295474  1
  Ni  Ni17  1  0.49956268  0.49775108  0.00938548  1
  Ni  Ni18  1  0.98312692  0.99769729  0.39360262  1
  Ni  Ni19  1  0.49898522  0.00067942  0.90726533  1
  C  C20  1  -0.00022076  -0.00047327  0.10749331  1
  C  C21  1  -0.00069025  0.49950710  0.01036465  1
  C  C22  1  0.49933531  0.99756474  1.00403541  1
  C  C23  1  0.49857168  0.49895205  0.10209430  1
  C  C24  1  1.01132686  0.00947087  0.30533608  1
  C  C25  1  0.99579027  0.49927248  0.20809009  1
  C  C26  1  0.49682423  0.99795883  0.20457361  1
  C  C27  1  0.49506171  0.49534961  0.30028992  1
  C  C28  1  0.00055595  1.00077983  0.48850335  1
  C  C29  1  0.99143763  0.50940934  0.38845012  1
  C  C30  1  0.50770667  0.00799603  0.38900657  1
  C  C31  1  0.50042458  0.49899624  0.48516781  1
  C  C32  1  0.00031835  0.00064684  0.70444030  1
  C  C33  1  0.99899969  0.50201226  0.59566374  1
  C  C34  1  0.49941033  0.00188034  0.59089213  1
  C  C35  1  0.50090901  0.50051441  0.69677718  1
  C  C36  1  0.99941308  1.00019052  0.89575417  1
  C  C37  1  0.00002220  0.50352485  0.79937347  1
  C  C38  1  0.49383256  1.00045751  0.80885157  1
  C  C39  1  0.50015991  0.50013694  0.91428145  1
