# generated using pymatgen
data_HfMgTiNbNiC5
_symmetry_space_group_name_H-M   'P 1'
_cell_length_a   4.50138398
_cell_length_b   4.49929382
_cell_length_c   22.03729509
_cell_angle_alpha   90.05252430
_cell_angle_beta   88.84774241
_cell_angle_gamma   90.49005179
_symmetry_Int_Tables_number   1
_chemical_formula_structural   HfMgTiNbNiC5
_chemical_formula_sum   'Hf4 Mg4 Ti4 Nb4 Ni4 C20'
_cell_volume   446.21572230
_cell_formula_units_Z   4
loop_
 _symmetry_equiv_pos_site_id
 _symmetry_equiv_pos_as_xyz
  1  'x, y, z'
loop_
 _atom_site_type_symbol
 _atom_site_label
 _atom_site_symmetry_multiplicity
 _atom_site_fract_x
 _atom_site_fract_y
 _atom_site_fract_z
 _atom_site_occupancy
  Hf  Hf0  1  0.01988947  1.00655409  0.99697661  1
  Hf  Hf1  1  1.00289323  0.50679647  0.10084437  1
  Hf  Hf2  1  0.99340461  0.00494509  0.20654839  1
  Hf  Hf3  1  0.47171699  0.49837237  0.39627307  1
  Mg  Mg4  1  0.50543835  0.00575392  0.09956908  1
  Mg  Mg5  1  0.48218067  0.00007847  0.30249447  1
  Mg  Mg6  1  0.94479805  0.48651644  0.70444418  1
  Mg  Mg7  1  0.58700494  -0.03111524  0.89138983  1
  Ti  Ti8  1  0.50954275  0.50711651  1.00235378  1
  Ti  Ti9  1  0.97189716  0.99879124  0.39679510  1
  Ti  Ti10  1  0.42707527  0.01130658  0.69781101  1
  Ti  Ti11  1  0.44651044  0.49944511  0.60659648  1
  Nb  Nb12  1  0.49341618  0.50484147  0.20530188  1
  Nb  Nb13  1  -0.04159304  0.49848286  0.50222382  1
  Nb  Nb14  1  0.45915859  -0.00211880  0.50252454  1
  Nb  Nb15  1  0.94732882  -0.00136899  0.60197413  1
  Ni  Ni16  1  0.97817056  0.49508157  0.30293553  1
  Ni  Ni17  1  1.12169884  0.02790724  0.79786785  1
  Ni  Ni18  1  -0.09852591  0.47872954  0.91114777  1
  Ni  Ni19  1  0.48334892  0.58884247  0.78443490  1
  C  C20  1  0.00569166  0.00682601  0.09809280  1
  C  C21  1  1.00484599  0.51054153  -0.00649434  1
  C  C22  1  0.51692412  0.99647983  0.99088249  1
  C  C23  1  0.50296227  0.50456294  0.09499524  1
  C  C24  1  -0.01765174  0.00965445  0.30775043  1
  C  C25  1  -0.00698882  0.50509815  0.20575067  1
  C  C26  1  0.49374416  1.00288051  0.20144857  1
  C  C27  1  0.48828793  0.50037322  0.29848089  1
  C  C28  1  0.95934405  0.99943747  0.50349584  1
  C  C29  1  0.97164378  0.49982502  0.39933887  1
  C  C30  1  0.47101548  0.99853179  0.40481738  1
  C  C31  1  0.45990566  0.49880983  0.50549545  1
  C  C32  1  0.94257666  0.99989801  0.71256590  1
  C  C33  1  0.94840650  0.49900550  0.60314704  1
  C  C34  1  0.44681260  0.00026017  0.60519100  1
  C  C35  1  0.43910268  0.50229762  0.70131232  1
  C  C36  1  0.08087234  0.14271215  0.87936704  1
  C  C37  1  0.27412666  0.35668234  0.85208789  1
  C  C38  1  0.77372429  -0.10763360  0.76142136  1
  C  C39  1  0.54427605  0.48807779  0.86873616  1
