# generated using pymatgen
data_HfMgTiNbCoC5
_symmetry_space_group_name_H-M   'P 1'
_cell_length_a   4.46155152
_cell_length_b   4.45560211
_cell_length_c   21.95818841
_cell_angle_alpha   89.89557922
_cell_angle_beta   90.08129268
_cell_angle_gamma   89.98932965
_symmetry_Int_Tables_number   1
_chemical_formula_structural   HfMgTiNbCoC5
_chemical_formula_sum   'Hf4 Mg4 Ti4 Nb4 Co4 C20'
_cell_volume   436.50342332
_cell_formula_units_Z   4
loop_
 _symmetry_equiv_pos_site_id
 _symmetry_equiv_pos_as_xyz
  1  'x, y, z'
loop_
 _atom_site_type_symbol
 _atom_site_label
 _atom_site_symmetry_multiplicity
 _atom_site_fract_x
 _atom_site_fract_y
 _atom_site_fract_z
 _atom_site_occupancy
  Hf  Hf0  1  0.00567756  0.51043075  0.09871895  1
  Hf  Hf1  1  -0.00380946  1.00161545  0.39627293  1
  Hf  Hf2  1  -0.00065829  0.50025203  0.50275831  1
  Hf  Hf3  1  -0.00362870  -0.00226549  0.79889296  1
  Mg  Mg4  1  0.50536367  0.50385832  0.99955093  1
  Mg  Mg5  1  1.00426632  0.49709088  0.70389614  1
  Mg  Mg6  1  0.49854545  0.99423555  0.70192108  1
  Mg  Mg7  1  0.50131585  0.49769735  0.60557928  1
  Ti  Ti8  1  0.49881653  1.00151456  0.50299315  1
  Ti  Ti9  1  0.49602895  0.50258781  0.39638763  1
  Ti  Ti10  1  -0.00156257  -0.00173089  0.60627667  1
  Ti  Ti11  1  -0.00371278  0.50472680  0.90369561  1
  Nb  Nb12  1  0.51113146  0.01043694  0.09884000  1
  Nb  Nb13  1  0.98772603  0.50976427  0.29058481  1
  Nb  Nb14  1  0.49665941  0.00954819  0.29016577  1
  Nb  Nb15  1  0.49957740  0.00822074  0.90431123  1
  Co  Co16  1  0.03826778  0.04559278  1.00022795  1
  Co  Co17  1  0.04753225  0.03307936  0.19416487  1
  Co  Co18  1  0.45482084  0.53050959  0.19779929  1
  Co  Co19  1  0.47258140  0.51905812  0.80658848  1
  C  C20  1  0.00113305  1.00747270  0.09923213  1
  C  C21  1  1.00403462  0.45345995  -0.00247757  1
  C  C22  1  0.46049617  0.99849978  1.00285755  1
  C  C23  1  0.50984163  0.50560611  0.10749226  1
  C  C24  1  0.99104098  0.00479344  0.28636183  1
  C  C25  1  0.04254544  0.45135802  0.19744824  1
  C  C26  1  0.46134260  0.95062022  0.19570870  1
  C  C27  1  0.49610852  0.50493157  0.29027217  1
  C  C28  1  0.99859483  0.99924280  0.49971725  1
  C  C29  1  0.99897232  0.50009634  0.39321205  1
  C  C30  1  0.49589054  -0.00252253  0.39456293  1
  C  C31  1  0.49921434  0.49817044  0.49243573  1
  C  C32  1  0.99820179  -0.00247828  0.69750209  1
  C  C33  1  0.00137548  0.49884607  0.60248416  1
  C  C34  1  0.49992810  -0.00183030  0.59527721  1
  C  C35  1  0.50382111  0.49280863  0.72783663  1
  C  C36  1  0.99421392  0.00085390  0.91025718  1
  C  C37  1  0.04068969  0.49616133  0.80883707  1
  C  C38  1  0.49751868  0.96706572  0.80648145  1
  C  C39  1  0.50160212  0.50093638  0.89464375  1
