# generated using pymatgen
data_HfMgTiMnNbC5
_symmetry_space_group_name_H-M   'P 1'
_cell_length_a   4.47811653
_cell_length_b   4.46299386
_cell_length_c   22.03738577
_cell_angle_alpha   90.13933294
_cell_angle_beta   89.95377021
_cell_angle_gamma   90.19211529
_symmetry_Int_Tables_number   1
_chemical_formula_structural   HfMgTiMnNbC5
_chemical_formula_sum   'Hf4 Mg4 Ti4 Mn4 Nb4 C20'
_cell_volume   440.43101025
_cell_formula_units_Z   4
loop_
 _symmetry_equiv_pos_site_id
 _symmetry_equiv_pos_as_xyz
  1  'x, y, z'
loop_
 _atom_site_type_symbol
 _atom_site_label
 _atom_site_symmetry_multiplicity
 _atom_site_fract_x
 _atom_site_fract_y
 _atom_site_fract_z
 _atom_site_occupancy
  Hf  Hf0  1  1.00342068  0.50411439  0.10613177  1
  Hf  Hf1  1  0.50403636  0.50004478  0.20620138  1
  Hf  Hf2  1  -0.00166495  0.50536636  0.69142640  1
  Hf  Hf3  1  0.99824788  0.50473570  0.90133014  1
  Mg  Mg4  1  1.00493620  1.00738203  0.20624900  1
  Mg  Mg5  1  0.50787565  0.00129812  0.30464924  1
  Mg  Mg6  1  0.50482532  0.47516569  0.39918276  1
  Mg  Mg7  1  0.49601714  0.50210603  0.59402417  1
  Ti  Ti8  1  0.00213315  0.00688240  0.00342986  1
  Ti  Ti9  1  0.50954425  -0.01032949  0.49683509  1
  Ti  Ti10  1  0.49826245  1.00456472  0.69265464  1
  Ti  Ti11  1  0.49864629  0.00484506  0.90266089  1
  Mn  Mn12  1  0.54508885  0.96960761  0.10615684  1
  Mn  Mn13  1  0.03509358  0.53837844  0.30332030  1
  Mn  Mn14  1  0.04280026  0.92620294  0.40078184  1
  Mn  Mn15  1  0.96232244  0.53668690  0.49412793  1
  Nb  Nb16  1  0.49954385  0.50684162  0.00366280  1
  Nb  Nb17  1  0.00072669  1.00836531  0.59030776  1
  Nb  Nb18  1  -0.00115220  1.00369965  0.79722961  1
  Nb  Nb19  1  0.49797963  0.50318910  0.79676579  1
  C  C20  1  0.96148431  0.00645973  0.09946290  1
  C  C21  1  0.00067342  0.50349392  1.00355619  1
  C  C22  1  0.49214065  0.00967327  1.00348065  1
  C  C23  1  0.49993303  0.53998126  0.10161215  1
  C  C24  1  -0.00391832  0.95139380  0.31362478  1
  C  C25  1  0.99997125  0.50540722  0.21467533  1
  C  C26  1  0.50127906  0.00618882  0.19072156  1
  C  C27  1  0.44797386  0.49318035  0.30319065  1
  C  C28  1  1.00668796  -0.03851548  0.49241078  1
  C  C29  1  0.99575004  0.51644782  0.40302821  1
  C  C30  1  0.45451289  0.98479465  0.40497522  1
  C  C31  1  0.55034868  0.48562620  0.49695148  1
  C  C32  1  0.99820973  1.00497585  0.69541727  1
  C  C33  1  1.00063803  0.50400664  0.58577603  1
  C  C34  1  0.49821596  1.00264172  0.59702421  1
  C  C35  1  0.49854476  0.50501441  0.69743191  1
  C  C36  1  -0.00524822  0.00488593  0.90185230  1
  C  C37  1  -0.00227728  0.50390809  0.79713696  1
  C  C38  1  0.49711124  0.00446369  0.79969622  1
  C  C39  1  0.49778625  0.50781727  0.90064335  1
