# generated using pymatgen
data_HfMgScTiNbC5
_symmetry_space_group_name_H-M   'P 1'
_cell_length_a   4.52578559
_cell_length_b   4.52425308
_cell_length_c   22.73866405
_cell_angle_alpha   90.00439601
_cell_angle_beta   89.99037710
_cell_angle_gamma   89.99875132
_symmetry_Int_Tables_number   1
_chemical_formula_structural   HfMgScTiNbC5
_chemical_formula_sum   'Hf4 Mg4 Sc4 Ti4 Nb4 C20'
_cell_volume   465.59231453
_cell_formula_units_Z   4
loop_
 _symmetry_equiv_pos_site_id
 _symmetry_equiv_pos_as_xyz
  1  'x, y, z'
loop_
 _atom_site_type_symbol
 _atom_site_label
 _atom_site_symmetry_multiplicity
 _atom_site_fract_x
 _atom_site_fract_y
 _atom_site_fract_z
 _atom_site_occupancy
  Hf  Hf0  1  0.49890688  1.00018507  0.29812183  1
  Hf  Hf1  1  0.50002198  0.50014448  0.39760623  1
  Hf  Hf2  1  0.50050091  0.50048419  0.59606249  1
  Hf  Hf3  1  0.99979431  0.99981381  0.80277649  1
  Mg  Mg4  1  0.49985539  0.49942615  1.00185322  1
  Mg  Mg5  1  0.99715720  0.99946786  0.20061530  1
  Mg  Mg6  1  -0.00023422  1.00028696  0.39905162  1
  Mg  Mg7  1  0.99970925  0.49812182  0.90317062  1
  Sc  Sc8  1  -0.00072885  0.50008425  0.10377053  1
  Sc  Sc9  1  0.00017085  0.49985663  0.49487044  1
  Sc  Sc10  1  0.49996319  0.00044677  0.69864238  1
  Sc  Sc11  1  0.49978681  0.50009545  0.80183131  1
  Ti  Ti12  1  -0.00164040  0.50032657  0.29850434  1
  Ti  Ti13  1  0.49226804  0.49932491  0.20057090  1
  Ti  Ti14  1  0.50031560  0.00004574  0.49611801  1
  Ti  Ti15  1  0.00220333  0.00053373  0.59570670  1
  Nb  Nb16  1  1.00030412  -0.00141297  0.00212312  1
  Nb  Nb17  1  0.49995487  0.00018091  0.10296271  1
  Nb  Nb18  1  0.99981493  0.50047626  0.69844419  1
  Nb  Nb19  1  0.49981729  0.99660567  0.90471394  1
  C  C20  1  0.99933336  0.00034813  0.09864062  1
  C  C21  1  -0.00004345  0.50179467  0.00322058  1
  C  C22  1  0.49960590  1.00049189  0.00282310  1
  C  C23  1  0.50017338  0.50100618  0.10709662  1
  C  C24  1  -0.00044924  0.99927688  0.29962769  1
  C  C25  1  0.01155734  0.49963601  0.20642542  1
  C  C26  1  0.49947133  0.00044344  0.19779863  1
  C  C27  1  0.50237429  0.50000088  0.29674061  1
  C  C28  1  -0.00059233  -0.00015468  0.50447621  1
  C  C29  1  0.00045989  0.49991227  0.39203466  1
  C  C30  1  0.49980693  0.00011763  0.40396861  1
  C  C31  1  0.50017988  0.50015419  0.49684562  1
  C  C32  1  0.99969199  -0.00096393  0.69675217  1
  C  C33  1  0.99977325  0.49947428  0.60022410  1
  C  C34  1  0.49807183  0.00042363  0.59390980  1
  C  C35  1  0.50071360  0.50015833  0.69668388  1
  C  C36  1  0.99993786  1.00053509  0.90322015  1
  C  C37  1  -0.00009207  0.49969164  0.79472872  1
  C  C38  1  0.49978135  1.00092490  0.80511173  1
  C  C39  1  0.49985622  0.50438712  0.90193918  1
