# generated using pymatgen
data_HfTiMnNbCoC5
_symmetry_space_group_name_H-M   'P 1'
_cell_length_a   4.48326836
_cell_length_b   4.44492533
_cell_length_c   21.06491232
_cell_angle_alpha   90.24027080
_cell_angle_beta   90.04609142
_cell_angle_gamma   90.14739310
_symmetry_Int_Tables_number   1
_chemical_formula_structural   HfTiMnNbCoC5
_chemical_formula_sum   'Hf4 Ti4 Mn4 Nb4 Co4 C20'
_cell_volume   419.77199428
_cell_formula_units_Z   4
loop_
 _symmetry_equiv_pos_site_id
 _symmetry_equiv_pos_as_xyz
  1  'x, y, z'
loop_
 _atom_site_type_symbol
 _atom_site_label
 _atom_site_symmetry_multiplicity
 _atom_site_fract_x
 _atom_site_fract_y
 _atom_site_fract_z
 _atom_site_occupancy
  Hf  Hf0  1  0.50332868  0.51518214  1.01257714  1
  Hf  Hf1  1  -0.00654509  0.99126851  0.58944607  1
  Hf  Hf2  1  -0.00103035  0.49069367  0.69995185  1
  Hf  Hf3  1  0.99948276  0.50614763  0.90656766  1
  Ti  Ti4  1  0.49179893  0.02392770  0.11467575  1
  Ti  Ti5  1  0.98541533  -0.01893980  0.38594711  1
  Ti  Ti6  1  0.00103217  0.48799152  0.48373988  1
  Ti  Ti7  1  0.50382841  0.48242661  0.38776871  1
  Mn  Mn8  1  0.42562670  -0.05543553  0.29657416  1
  Mn  Mn9  1  0.58653825  0.57122758  0.20474938  1
  Mn  Mn10  1  0.45940934  0.03146719  0.48546657  1
  Mn  Mn11  1  0.46545509  0.04505153  0.90508287  1
  Nb  Nb12  1  1.00081905  1.00985488  0.01579405  1
  Nb  Nb13  1  0.49750887  -0.01081456  0.70223604  1
  Nb  Nb14  1  0.49580560  0.49259919  0.59019618  1
  Nb  Nb15  1  0.99547502  0.99278681  0.80476130  1
  Co  Co16  1  0.04858479  0.48856905  0.11473344  1
  Co  Co17  1  0.96260823  1.05973528  0.20378474  1
  Co  Co18  1  0.04838243  0.46511633  0.29282530  1
  Co  Co19  1  0.53492667  0.44376769  0.80405863  1
  C  C20  1  1.00489212  0.04023745  0.11604535  1
  C  C21  1  0.00113812  0.51438171  0.01852619  1
  C  C22  1  0.50570961  1.01342260  1.00564886  1
  C  C23  1  0.46116154  0.52300613  0.11966079  1
  C  C24  1  1.02277793  1.01454194  0.28938554  1
  C  C25  1  -0.01771877  0.50657314  0.20312526  1
  C  C26  1  0.55072035  0.99612365  0.21155518  1
  C  C27  1  0.45927071  0.51896604  0.28989987  1
  C  C28  1  0.03792035  0.98695723  0.48451463  1
  C  C29  1  0.99436908  0.48519457  0.38411039  1
  C  C30  1  0.49865109  -0.01611573  0.38970196  1
  C  C31  1  0.50161709  0.45511868  0.48755643  1
  C  C32  1  1.00100071  0.98940481  0.69848060  1
  C  C33  1  0.99284423  0.49254810  0.58888958  1
  C  C34  1  0.49573659  -0.00913358  0.58718585  1
  C  C35  1  0.49774246  0.48626761  0.70400102  1
  C  C36  1  0.04020849  0.00233405  0.90860965  1
  C  C37  1  -0.04202713  0.49744318  0.80349034  1
  C  C38  1  0.49560176  1.02336915  0.80863600  1
  C  C39  1  0.50130187  0.46523123  0.90047733  1
