# generated using pymatgen
data_HfScTiMnNbC5
_symmetry_space_group_name_H-M   'P 1'
_cell_length_a   4.49211437
_cell_length_b   4.49564973
_cell_length_c   22.17480085
_cell_angle_alpha   89.89405042
_cell_angle_beta   90.07938546
_cell_angle_gamma   89.97075381
_symmetry_Int_Tables_number   1
_chemical_formula_structural   HfScTiMnNbC5
_chemical_formula_sum   'Hf4 Sc4 Ti4 Mn4 Nb4 C20'
_cell_volume   447.81824513
_cell_formula_units_Z   4
loop_
 _symmetry_equiv_pos_site_id
 _symmetry_equiv_pos_as_xyz
  1  'x, y, z'
loop_
 _atom_site_type_symbol
 _atom_site_label
 _atom_site_symmetry_multiplicity
 _atom_site_fract_x
 _atom_site_fract_y
 _atom_site_fract_z
 _atom_site_occupancy
  Hf  Hf0  1  -0.00730618  0.49312833  0.10232079  1
  Hf  Hf1  1  0.00056232  0.49701764  0.70019665  1
  Hf  Hf2  1  0.50066841  -0.00273647  0.70076555  1
  Hf  Hf3  1  0.99873237  0.49064991  0.90621987  1
  Sc  Sc4  1  0.49372758  0.00448244  0.10208285  1
  Sc  Sc5  1  0.50593198  1.01107737  0.29912750  1
  Sc  Sc6  1  0.99833906  0.49721186  0.49176379  1
  Sc  Sc7  1  0.50201247  1.00079374  0.49328800  1
  Ti  Ti8  1  0.99611330  0.99262349  0.20288497  1
  Ti  Ti9  1  0.00452097  0.49973136  0.29821780  1
  Ti  Ti10  1  0.49104190  0.51020301  0.39561328  1
  Ti  Ti11  1  0.00003702  0.99428576  0.80511824  1
  Mn  Mn12  1  0.97224425  -0.04519724  1.00497881  1
  Mn  Mn13  1  0.46996129  0.56152359  1.00708693  1
  Mn  Mn14  1  0.54236693  0.53937122  0.20826550  1
  Mn  Mn15  1  0.03286483  0.96764269  0.39465718  1
  Nb  Nb16  1  1.00126075  0.99750152  0.59321927  1
  Nb  Nb17  1  0.50109862  0.49813507  0.59305765  1
  Nb  Nb18  1  0.49759073  -0.00441380  0.90651678  1
  Nb  Nb19  1  0.50113406  0.49577235  0.80556092  1
  C  C20  1  0.99545985  -0.00336836  0.09832650  1
  C  C21  1  0.04800966  0.54075841  1.00350336  1
  C  C22  1  0.55353125  0.97223559  1.00184599  1
  C  C23  1  0.49698072  0.49847681  0.09288117  1
  C  C24  1  1.00386765  1.00696239  0.30315841  1
  C  C25  1  -0.04038942  0.49427607  0.20321680  1
  C  C26  1  0.49632805  0.95173407  0.20067140  1
  C  C27  1  0.50062463  0.50596751  0.29292177  1
  C  C28  1  -0.00113495  -0.00148164  0.48735929  1
  C  C29  1  0.98760170  0.55170569  0.39119493  1
  C  C30  1  0.44835543  0.01285163  0.39588039  1
  C  C31  1  0.49924540  0.50034411  0.49234082  1
  C  C32  1  0.00095146  -0.00252757  0.70227015  1
  C  C33  1  1.00093897  0.49772144  0.59725871  1
  C  C34  1  0.50119277  0.99785682  0.59818418  1
  C  C35  1  0.50027522  0.49731012  0.70133341  1
  C  C36  1  -0.00081802  0.99452644  0.90944691  1
  C  C37  1  0.00221815  0.49688565  0.80360008  1
  C  C38  1  0.50470068  0.99555351  0.80471948  1
  C  C39  1  0.49958022  0.49294818  0.90871877  1
