# generated using pymatgen
data_HfTiMnNbNiC5
_symmetry_space_group_name_H-M   'P 1'
_cell_length_a   4.43238843
_cell_length_b   4.44815736
_cell_length_c   21.42572704
_cell_angle_alpha   90.30880216
_cell_angle_beta   89.98307522
_cell_angle_gamma   90.05768341
_symmetry_Int_Tables_number   1
_chemical_formula_structural   HfTiMnNbNiC5
_chemical_formula_sum   'Hf4 Ti4 Mn4 Nb4 Ni4 C20'
_cell_volume   422.42243640
_cell_formula_units_Z   4
loop_
 _symmetry_equiv_pos_site_id
 _symmetry_equiv_pos_as_xyz
  1  'x, y, z'
loop_
 _atom_site_type_symbol
 _atom_site_label
 _atom_site_symmetry_multiplicity
 _atom_site_fract_x
 _atom_site_fract_y
 _atom_site_fract_z
 _atom_site_occupancy
  Hf  Hf0  1  -0.00238918  0.00083335  0.39092643  1
  Hf  Hf1  1  0.49726104  0.50119275  0.38738934  1
  Hf  Hf2  1  1.00023965  0.51846533  0.70353862  1
  Hf  Hf3  1  0.48240663  -0.01432866  0.90631052  1
  Ti  Ti4  1  0.00474063  0.98842810  0.20089248  1
  Ti  Ti5  1  0.49896290  0.00945021  0.49782852  1
  Ti  Ti6  1  0.99629484  0.01101590  0.59952226  1
  Ti  Ti7  1  0.49962019  0.50115021  0.80600215  1
  Mn  Mn8  1  0.56161515  0.42883123  0.19785908  1
  Mn  Mn9  1  0.53556369  0.55573823  0.59660273  1
  Mn  Mn10  1  0.96003889  1.05669141  0.80513092  1
  Mn  Mn11  1  -0.05206193  0.44946481  0.90562335  1
  Nb  Nb12  1  -0.00839251  -0.01569300  1.00545231  1
  Nb  Nb13  1  0.01664482  0.49350549  0.10107055  1
  Nb  Nb14  1  0.00262487  0.50493355  0.49875574  1
  Nb  Nb15  1  0.49571944  1.01433088  0.70219340  1
  Ni  Ni16  1  0.49690439  1.02289841  0.10207298  1
  Ni  Ni17  1  0.51953702  0.49183413  1.00638597  1
  Ni  Ni18  1  1.01653259  0.51018227  0.29234584  1
  Ni  Ni19  1  0.48867595  0.97263836  0.29084961  1
  C  C20  1  0.01473656  0.99325880  0.10268606  1
  C  C21  1  -0.00236560  0.49048883  -0.00400006  1
  C  C22  1  0.49633509  0.99114664  1.01062938  1
  C  C23  1  0.50583698  0.49549881  0.10676366  1
  C  C24  1  1.01091027  -0.01204688  0.29212348  1
  C  C25  1  0.97870694  0.49148647  0.20160695  1
  C  C26  1  0.50550558  0.02060709  0.19760514  1
  C  C27  1  0.47774540  0.51911210  0.28130190  1
  C  C28  1  0.00160202  0.00823161  0.50074156  1
  C  C29  1  -0.00336198  0.50045160  0.39248794  1
  C  C30  1  0.49864087  1.00090952  0.39452972  1
  C  C31  1  0.49736194  0.50542687  0.50372971  1
  C  C32  1  -0.00063522  1.01751486  0.70647861  1
  C  C33  1  0.96159627  0.50648905  0.60017000  1
  C  C34  1  0.49469057  0.97316208  0.59813938  1
  C  C35  1  0.49719262  0.51220421  0.69970489  1
  C  C36  1  0.99100860  1.02220132  0.89837613  1
  C  C37  1  1.00429738  0.47503097  0.81116488  1
  C  C38  1  0.53129154  0.99695790  0.80202372  1
  C  C39  1  0.52800842  0.49156874  0.90740773  1
