# generated using pymatgen
data_HfScTiNbMoC5
_symmetry_space_group_name_H-M   'P 1'
_cell_length_a   4.50139374
_cell_length_b   4.50080884
_cell_length_c   22.53219358
_cell_angle_alpha   90.02358593
_cell_angle_beta   90.01202118
_cell_angle_gamma   89.99983283
_symmetry_Int_Tables_number   1
_chemical_formula_structural   HfScTiNbMoC5
_chemical_formula_sum   'Hf4 Sc4 Ti4 Nb4 Mo4 C20'
_cell_volume   456.50022616
_cell_formula_units_Z   4
loop_
 _symmetry_equiv_pos_site_id
 _symmetry_equiv_pos_as_xyz
  1  'x, y, z'
loop_
 _atom_site_type_symbol
 _atom_site_label
 _atom_site_symmetry_multiplicity
 _atom_site_fract_x
 _atom_site_fract_y
 _atom_site_fract_z
 _atom_site_occupancy
  Hf  Hf0  1  0.00013804  0.49955362  0.09828448  1
  Hf  Hf1  1  0.49977156  -0.00071232  0.09821779  1
  Hf  Hf2  1  0.50023749  1.00111798  0.30255366  1
  Hf  Hf3  1  0.00166702  0.00177148  0.40704432  1
  Sc  Sc4  1  1.00109275  -0.00310539  -0.00551973  1
  Sc  Sc5  1  -0.00020420  -0.00027829  0.20157534  1
  Sc  Sc6  1  1.00066770  0.50030896  0.30349214  1
  Sc  Sc7  1  0.00119464  0.50028796  0.69704508  1
  Ti  Ti8  1  0.49930679  0.49852091  0.20194739  1
  Ti  Ti9  1  -0.00100437  0.50107366  0.50639211  1
  Ti  Ti10  1  1.00002488  1.00034479  0.60323880  1
  Ti  Ti11  1  0.50049802  0.00053613  0.69721568  1
  Nb  Nb12  1  0.49977887  0.00094923  0.50817915  1
  Nb  Nb13  1  -0.00261858  0.99936608  0.79415126  1
  Nb  Nb14  1  0.00158385  0.50016188  0.89577872  1
  Nb  Nb15  1  0.50064286  0.00141930  0.89433419  1
  Mo  Mo16  1  0.51438787  0.47947742  -0.00705837  1
  Mo  Mo17  1  0.51174352  0.51198578  0.40403289  1
  Mo  Mo18  1  0.48466320  0.50963716  0.59852025  1
  Mo  Mo19  1  0.51480358  0.48690668  0.79156459  1
  C  C20  1  0.99988297  -0.00049249  0.09603035  1
  C  C21  1  -0.01290945  0.50013103  -0.00649887  1
  C  C22  1  0.49779217  0.01342739  0.99281850  1
  C  C23  1  0.49901479  0.50100409  0.09597201  1
  C  C24  1  1.00021055  0.00030382  0.30688944  1
  C  C25  1  0.00089149  0.50009926  0.19913852  1
  C  C26  1  0.50004153  0.00207561  0.20104183  1
  C  C27  1  0.49997473  0.50004610  0.30685000  1
  C  C28  1  -0.00065387  -0.00016326  0.50852185  1
  C  C29  1  -0.00944012  0.49914490  0.41060354  1
  C  C30  1  0.49971295  0.98836524  0.40810892  1
  C  C31  1  0.49986424  0.49853237  0.50590286  1
  C  C32  1  0.99937074  -0.00035650  0.69700934  1
  C  C33  1  0.00909981  0.49875982  0.59890585  1
  C  C34  1  0.50112153  -0.00495671  0.60439493  1
  C  C35  1  0.50055365  0.50063463  0.70036641  1
  C  C36  1  0.00051300  0.00146804  0.89256479  1
  C  C37  1  -0.00563274  0.50122817  0.79840820  1
  C  C38  1  0.49777678  1.00765399  0.79501782  1
  C  C39  1  0.49777356  0.50568034  0.89668162  1
