# generated using pymatgen
data_HfTiNbNiMoC5
_symmetry_space_group_name_H-M   'P 1'
_cell_length_a   4.41431029
_cell_length_b   4.41848579
_cell_length_c   22.02776615
_cell_angle_alpha   90.00513960
_cell_angle_beta   89.93968425
_cell_angle_gamma   89.99874345
_symmetry_Int_Tables_number   1
_chemical_formula_structural   HfTiNbNiMoC5
_chemical_formula_sum   'Hf4 Ti4 Nb4 Ni4 Mo4 C20'
_cell_volume   429.64180757
_cell_formula_units_Z   4
loop_
 _symmetry_equiv_pos_site_id
 _symmetry_equiv_pos_as_xyz
  1  'x, y, z'
loop_
 _atom_site_type_symbol
 _atom_site_label
 _atom_site_symmetry_multiplicity
 _atom_site_fract_x
 _atom_site_fract_y
 _atom_site_fract_z
 _atom_site_occupancy
  Hf  Hf0  1  0.49940300  0.50078641  1.00444441  1
  Hf  Hf1  1  -0.00065746  0.49804031  0.29847183  1
  Hf  Hf2  1  0.01276505  0.49028778  0.69738823  1
  Hf  Hf3  1  0.00034201  0.50086469  0.90193802  1
  Ti  Ti4  1  0.50018385  1.00044540  0.09705066  1
  Ti  Ti5  1  0.99998168  -0.00077769  0.19159704  1
  Ti  Ti6  1  0.50010199  0.00004523  0.29779097  1
  Ti  Ti7  1  0.99931150  0.49994378  0.50362987  1
  Nb  Nb8  1  0.49998748  0.49989491  0.19509039  1
  Nb  Nb9  1  0.00121326  -0.00019560  0.40205584  1
  Nb  Nb10  1  0.00330775  -0.00082091  0.79998107  1
  Nb  Nb11  1  0.50037968  1.00124995  0.90013058  1
  Ni  Ni12  1  0.99952703  0.00033428  0.00488809  1
  Ni  Ni13  1  0.00005135  0.49877115  0.09867595  1
  Ni  Ni14  1  0.51482044  0.52141245  0.59948640  1
  Ni  Ni15  1  0.50189397  0.50869230  0.79925011  1
  Mo  Mo16  1  0.48400152  0.01979560  0.50832966  1
  Mo  Mo17  1  0.48714621  0.52274719  0.40763171  1
  Mo  Mo18  1  0.95947308  0.98531993  0.59529775  1
  Mo  Mo19  1  0.52261272  0.97068752  0.70327996  1
  C  C20  1  1.00024208  0.00073237  0.09616514  1
  C  C21  1  -0.00038252  0.49927872  1.00722945  1
  C  C22  1  0.50043523  0.00078932  1.00090275  1
  C  C23  1  0.49978409  0.50016527  0.10168893  1
  C  C24  1  0.00084735  0.99739655  0.29754691  1
  C  C25  1  1.00032454  0.49920866  0.19353489  1
  C  C26  1  0.50059483  -0.00102968  0.19889216  1
  C  C27  1  0.50057044  0.49632402  0.30231304  1
  C  C28  1  -0.00283909  -0.00073536  0.50096529  1
  C  C29  1  0.00543662  0.49661128  0.40317964  1
  C  C30  1  0.50337726  -0.00464595  0.40145108  1
  C  C31  1  0.50192382  0.49678478  0.50170303  1
  C  C32  1  1.00231366  -0.00432868  0.69636329  1
  C  C33  1  0.99613094  0.50121112  0.59567749  1
  C  C34  1  0.49196102  0.99799145  0.60048511  1
  C  C35  1  0.51010729  0.50352741  0.69885980  1
  C  C36  1  0.00030452  1.00108705  0.90398320  1
  C  C37  1  0.00285962  0.50055667  0.79933273  1
  C  C38  1  0.50124160  1.00269666  0.79658105  1
  C  C39  1  0.50050939  0.50198813  0.89618852  1
