# generated using pymatgen
data_HfTiNbCoMoC5
_symmetry_space_group_name_H-M   'P 1'
_cell_length_a   4.44473592
_cell_length_b   4.43951025
_cell_length_c   21.66653347
_cell_angle_alpha   89.96640838
_cell_angle_beta   90.06923845
_cell_angle_gamma   90.06480140
_symmetry_Int_Tables_number   1
_chemical_formula_structural   HfTiNbCoMoC5
_chemical_formula_sum   'Hf4 Ti4 Nb4 Co4 Mo4 C20'
_cell_volume   427.53314391
_cell_formula_units_Z   4
loop_
 _symmetry_equiv_pos_site_id
 _symmetry_equiv_pos_as_xyz
  1  'x, y, z'
loop_
 _atom_site_type_symbol
 _atom_site_label
 _atom_site_symmetry_multiplicity
 _atom_site_fract_x
 _atom_site_fract_y
 _atom_site_fract_z
 _atom_site_occupancy
  Hf  Hf0  1  -0.00050024  0.00188878  0.39430570  1
  Hf  Hf1  1  1.00335940  0.50037315  0.50398408  1
  Hf  Hf2  1  0.50147744  1.00017015  0.50322280  1
  Hf  Hf3  1  0.49122102  1.01144593  0.89520191  1
  Ti  Ti4  1  0.50045251  1.00104319  0.10225705  1
  Ti  Ti5  1  0.50209065  0.99870295  0.29494987  1
  Ti  Ti6  1  0.50483617  0.49472611  0.20171509  1
  Ti  Ti7  1  0.00198704  0.99584863  0.61015147  1
  Nb  Nb8  1  0.99466010  -0.00016635  0.99842293  1
  Nb  Nb9  1  0.00105935  0.49780614  0.10325443  1
  Nb  Nb10  1  0.49481541  1.00990702  0.70590195  1
  Nb  Nb11  1  -0.00954497  0.50885195  0.88575759  1
  Co  Co12  1  1.00121958  0.48925383  0.29664945  1
  Co  Co13  1  1.03397858  0.46256400  0.70336747  1
  Co  Co14  1  -0.03011226  1.02638399  0.79757512  1
  Co  Co15  1  0.47133328  0.53374252  0.79833506  1
  Mo  Mo16  1  0.47626612  0.51565206  1.00030239  1
  Mo  Mo17  1  0.00982265  -0.02630627  0.20294053  1
  Mo  Mo18  1  0.49580902  0.50251349  0.38782651  1
  Mo  Mo19  1  0.52307124  0.50705056  0.61385863  1
  C  C20  1  0.99825280  0.00268909  0.09978961  1
  C  C21  1  0.00250242  0.50024524  -0.00398822  1
  C  C22  1  0.49726217  -0.00282813  1.00171390  1
  C  C23  1  0.50011521  0.50052393  0.09964849  1
  C  C24  1  0.00097991  0.01462181  0.29393984  1
  C  C25  1  1.00119298  0.49904130  0.20420270  1
  C  C26  1  0.49915297  -0.00478759  0.19852337  1
  C  C27  1  0.50148900  0.49822925  0.29796084  1
  C  C28  1  0.00184755  0.00109956  0.50612713  1
  C  C29  1  0.00399350  0.50078003  0.39377215  1
  C  C30  1  0.50009332  0.99653188  0.39570807  1
  C  C31  1  0.50228039  0.49934132  0.50538382  1
  C  C32  1  -0.00298518  1.03539220  0.70815722  1
  C  C33  1  0.99328389  0.49828029  0.61359617  1
  C  C34  1  0.50279085  -0.00840549  0.60578010  1
  C  C35  1  0.46421775  0.50674617  0.70806807  1
  C  C36  1  0.99264636  1.00796669  0.89124044  1
  C  C37  1  0.03211561  0.46547190  0.78952628  1
  C  C38  1  0.55147842  0.95170017  0.79893103  1
  C  C39  1  0.49130495  0.50858751  0.89215900  1
