# generated using pymatgen
data_HfMgTiNbMoC5
_symmetry_space_group_name_H-M   'P 1'
_cell_length_a   4.47038744
_cell_length_b   4.46851380
_cell_length_c   22.43040388
_cell_angle_alpha   90.00503011
_cell_angle_beta   90.01284259
_cell_angle_gamma   90.00097106
_symmetry_Int_Tables_number   1
_chemical_formula_structural   HfMgTiNbMoC5
_chemical_formula_sum   'Hf4 Mg4 Ti4 Nb4 Mo4 C20'
_cell_volume   448.06946404
_cell_formula_units_Z   4
loop_
 _symmetry_equiv_pos_site_id
 _symmetry_equiv_pos_as_xyz
  1  'x, y, z'
loop_
 _atom_site_type_symbol
 _atom_site_label
 _atom_site_symmetry_multiplicity
 _atom_site_fract_x
 _atom_site_fract_y
 _atom_site_fract_z
 _atom_site_occupancy
  Hf  Hf0  1  0.00042453  0.00001365  -0.00092209  1
  Hf  Hf1  1  0.49734898  0.50102140  0.20120199  1
  Hf  Hf2  1  1.00147828  0.00030922  0.40268123  1
  Hf  Hf3  1  0.50097559  0.49996347  0.79652910  1
  Mg  Mg4  1  0.49704393  0.99641920  0.10391458  1
  Mg  Mg5  1  1.00009302  -0.00465967  0.20101331  1
  Mg  Mg6  1  0.49773903  0.49957301  0.40281153  1
  Mg  Mg7  1  0.50011333  0.99957978  0.89669093  1
  Ti  Ti8  1  0.50167807  1.00213013  0.29968669  1
  Ti  Ti9  1  0.00056527  1.00124684  0.60178191  1
  Ti  Ti10  1  0.50136401  1.00210367  0.69470616  1
  Ti  Ti11  1  0.49953599  0.49859872  0.60117550  1
  Nb  Nb12  1  0.50063869  0.49974005  1.00117336  1
  Nb  Nb13  1  -0.00007084  0.49899274  0.50278773  1
  Nb  Nb14  1  0.00015512  0.00066829  0.79560253  1
  Nb  Nb15  1  1.00064357  0.49961550  0.89790708  1
  Mo  Mo16  1  0.98590570  0.47587664  0.10534479  1
  Mo  Mo17  1  -0.01841067  0.48348798  0.30450958  1
  Mo  Mo18  1  0.51172836  0.97478693  0.49999794  1
  Mo  Mo19  1  0.01244363  0.51619844  0.69245370  1
  C  C20  1  -0.00079077  0.02066121  0.09971435  1
  C  C21  1  1.00227772  0.50227088  0.99944622  1
  C  C22  1  0.50045117  0.00001319  0.99881893  1
  C  C23  1  0.51090954  0.50189737  0.09904043  1
  C  C24  1  0.00364462  0.01590921  0.30308314  1
  C  C25  1  0.99985578  0.50166082  0.19799958  1
  C  C26  1  0.49925562  1.00167564  0.20959938  1
  C  C27  1  0.51384801  0.50483223  0.30211426  1
  C  C28  1  0.99480729  0.00014408  0.50555734  1
  C  C29  1  -0.00081562  0.50159127  0.39833184  1
  C  C30  1  0.49960717  0.00162373  0.40883222  1
  C  C31  1  0.49872700  0.50349026  0.50586371  1
  C  C32  1  0.99796816  0.99573530  0.69567518  1
  C  C33  1  -0.00211788  0.50012867  0.60089159  1
  C  C34  1  0.49674423  0.00314942  0.60083570  1
  C  C35  1  0.49294736  0.50097274  0.69504732  1
  C  C36  1  0.00007702  0.99970290  0.89412730  1
  C  C37  1  1.00016742  0.49926872  0.79449870  1
  C  C38  1  0.49986716  -0.00007288  0.79138697  1
  C  C39  1  0.50095339  0.49960700  0.89893356  1
