# generated using pymatgen
data_HfTiMnNbMoC5
_symmetry_space_group_name_H-M   'P 1'
_cell_length_a   4.45933920
_cell_length_b   4.45827413
_cell_length_c   21.83935866
_cell_angle_alpha   89.94987056
_cell_angle_beta   90.14953880
_cell_angle_gamma   89.97120121
_symmetry_Int_Tables_number   1
_chemical_formula_structural   HfTiMnNbMoC5
_chemical_formula_sum   'Hf4 Ti4 Mn4 Nb4 Mo4 C20'
_cell_volume   434.18564117
_cell_formula_units_Z   4
loop_
 _symmetry_equiv_pos_site_id
 _symmetry_equiv_pos_as_xyz
  1  'x, y, z'
loop_
 _atom_site_type_symbol
 _atom_site_label
 _atom_site_symmetry_multiplicity
 _atom_site_fract_x
 _atom_site_fract_y
 _atom_site_fract_z
 _atom_site_occupancy
  Hf  Hf0  1  1.00880322  1.00570326  1.00415080  1
  Hf  Hf1  1  0.98964716  0.49996673  0.69485717  1
  Hf  Hf2  1  1.00302539  0.50397191  0.89953884  1
  Hf  Hf3  1  0.50368327  0.00494409  0.89841675  1
  Ti  Ti4  1  0.99367931  0.49653847  0.29876437  1
  Ti  Ti5  1  0.49377352  0.50023777  0.19970908  1
  Ti  Ti6  1  1.00103935  0.50195807  0.50112170  1
  Ti  Ti7  1  0.49668428  -0.00198636  0.69599915  1
  Mn  Mn8  1  0.54171531  0.54035107  1.00490756  1
  Mn  Mn9  1  1.05326546  0.04323926  0.59298878  1
  Mn  Mn10  1  0.45776032  0.44541796  0.59761127  1
  Mn  Mn11  1  0.03463705  0.96996282  0.79420747  1
  Nb  Nb12  1  0.49462319  -0.00154258  0.29893257  1
  Nb  Nb13  1  0.99796699  -0.00014948  0.40177097  1
  Nb  Nb14  1  0.49982671  0.50037799  0.40248769  1
  Nb  Nb15  1  0.49593260  0.50410120  0.79571871  1
  Mo  Mo16  1  0.00835219  0.49294060  0.10613334  1
  Mo  Mo17  1  0.50717608  1.02553252  0.10422236  1
  Mo  Mo18  1  0.98095894  -0.01770006  0.19810067  1
  Mo  Mo19  1  0.52167600  0.97438595  0.50648170  1
  C  C20  1  1.00535811  1.00664500  0.10456133  1
  C  C21  1  0.96426617  0.50257841  1.00552551  1
  C  C22  1  0.50351117  0.96405986  0.00463024  1
  C  C23  1  0.49036909  0.49590376  0.09638785  1
  C  C24  1  0.99731898  0.00058944  0.30052139  1
  C  C25  1  -0.00605637  0.50212915  0.20169252  1
  C  C26  1  0.49891919  -0.00163937  0.19880649  1
  C  C27  1  0.49762723  0.49964598  0.29851013  1
  C  C28  1  0.00153431  0.99305132  0.50550890  1
  C  C29  1  1.00124602  0.49898093  0.40053663  1
  C  C30  1  0.49753176  1.00216471  0.40315322  1
  C  C31  1  0.50879990  0.50155128  0.50500943  1
  C  C32  1  0.98872448  0.99938034  0.70215901  1
  C  C33  1  1.03113435  0.46978274  0.59519382  1
  C  C34  1  0.48120207  0.01937360  0.59926976  1
  C  C35  1  0.49416969  0.49870226  0.69193588  1
  C  C36  1  1.00287254  0.00709273  0.89315251  1
  C  C37  1  -0.00767667  0.54058594  0.79760853  1
  C  C38  1  0.45812478  0.00920749  0.79450274  1
  C  C39  1  0.50261693  0.50227954  0.90437692  1
