# generated using pymatgen
data_HfTiNbVMoC5
_symmetry_space_group_name_H-M   'P 1'
_cell_length_a   4.42314323
_cell_length_b   4.41827203
_cell_length_c   22.06479916
_cell_angle_alpha   90.00054429
_cell_angle_beta   89.98458213
_cell_angle_gamma   90.00198904
_symmetry_Int_Tables_number   1
_chemical_formula_structural   HfTiNbVMoC5
_chemical_formula_sum   'Hf4 Ti4 Nb4 V4 Mo4 C20'
_cell_volume   431.20463226
_cell_formula_units_Z   4
loop_
 _symmetry_equiv_pos_site_id
 _symmetry_equiv_pos_as_xyz
  1  'x, y, z'
loop_
 _atom_site_type_symbol
 _atom_site_label
 _atom_site_symmetry_multiplicity
 _atom_site_fract_x
 _atom_site_fract_y
 _atom_site_fract_z
 _atom_site_occupancy
  Hf  Hf0  1  0.00040587  0.00070472  0.39495549  1
  Hf  Hf1  1  0.49902769  0.00146765  0.50182062  1
  Hf  Hf2  1  0.99901514  0.49824287  0.69922826  1
  Hf  Hf3  1  0.49988372  0.49745489  0.79921973  1
  Ti  Ti4  1  0.49945554  0.00098502  0.09953627  1
  Ti  Ti5  1  0.50237959  0.00000930  0.29590691  1
  Ti  Ti6  1  0.50017678  0.49911963  0.20096300  1
  Ti  Ti7  1  0.50074239  0.50050216  0.39374935  1
  Nb  Nb8  1  0.99986267  0.50012427  0.09969348  1
  Nb  Nb9  1  0.49776200  0.50148759  0.00073683  1
  Nb  Nb10  1  0.00024765  0.00042492  0.19897888  1
  Nb  Nb11  1  1.00005133  0.50051490  0.50177532  1
  V  V12  1  0.00644966  -0.00946359  0.00028944  1
  V  V13  1  0.00654454  0.50183406  0.29613494  1
  V  V14  1  0.49377101  1.00059695  0.69592175  1
  V  V15  1  0.49409424  0.50053164  0.60193908  1
  Mo  Mo16  1  0.98150189  0.98166172  0.60567895  1
  Mo  Mo17  1  0.01659346  0.98957562  0.80939361  1
  Mo  Mo18  1  0.97500605  0.49766675  0.90633355  1
  Mo  Mo19  1  0.53018863  0.98930435  0.90562482  1
  C  C20  1  -0.00083080  0.00124075  0.09488106  1
  C  C21  1  -0.00022851  0.50768627  0.99965484  1
  C  C22  1  0.49403497  0.00072829  -0.00017255  1
  C  C23  1  0.49947237  0.50037737  0.10182781  1
  C  C24  1  0.99989847  0.99902241  0.29542581  1
  C  C25  1  0.99905477  0.50110472  0.20170925  1
  C  C26  1  0.49992793  0.00026391  0.19772343  1
  C  C27  1  0.49475578  0.49980274  0.29766016  1
  C  C28  1  0.00021698  0.00190090  0.50288731  1
  C  C29  1  0.99954903  0.50060546  0.39489594  1
  C  C30  1  0.50038769  1.00028193  0.39567939  1
  C  C31  1  0.50154533  0.50133444  0.50137845  1
  C  C32  1  0.00351382  0.00037760  0.70131913  1
  C  C33  1  0.00770551  0.50499197  0.59868653  1
  C  C34  1  0.50601732  1.00633676  0.60539674  1
  C  C35  1  0.49935596  0.49960747  0.69513617  1
  C  C36  1  1.00365404  0.01147533  0.90315147  1
  C  C37  1  0.99888029  0.50753048  0.80419864  1
  C  C38  1  0.49224066  -0.00090116  0.79805577  1
  C  C39  1  0.49882941  0.50400680  0.90159694  1
