# generated using pymatgen
data_HfScTiNbNiC5
_symmetry_space_group_name_H-M   'P 1'
_cell_length_a   4.48292976
_cell_length_b   4.47937785
_cell_length_c   22.16493291
_cell_angle_alpha   90.01265013
_cell_angle_beta   89.90667870
_cell_angle_gamma   90.00737490
_symmetry_Int_Tables_number   1
_chemical_formula_structural   HfScTiNbNiC5
_chemical_formula_sum   'Hf4 Sc4 Ti4 Nb4 Ni4 C20'
_cell_volume   445.08756781
_cell_formula_units_Z   4
loop_
 _symmetry_equiv_pos_site_id
 _symmetry_equiv_pos_as_xyz
  1  'x, y, z'
loop_
 _atom_site_type_symbol
 _atom_site_label
 _atom_site_symmetry_multiplicity
 _atom_site_fract_x
 _atom_site_fract_y
 _atom_site_fract_z
 _atom_site_occupancy
  Hf  Hf0  1  0.99618745  0.49866670  0.10583250  1
  Hf  Hf1  1  0.48933802  0.50132155  0.20862830  1
  Hf  Hf2  1  1.00474180  -0.00364668  0.38988612  1
  Hf  Hf3  1  0.50087126  0.49964089  0.79691363  1
  Sc  Sc4  1  0.49764415  1.00052638  0.10635307  1
  Sc  Sc5  1  0.49879931  0.49970963  0.00213455  1
  Sc  Sc6  1  0.50139511  0.99835560  0.49648553  1
  Sc  Sc7  1  0.50034122  0.49596742  0.39729947  1
  Ti  Ti8  1  0.00014938  0.99885695  1.00213670  1
  Ti  Ti9  1  0.00110540  0.49847103  0.49651358  1
  Ti  Ti10  1  -0.00140361  -0.00066929  0.79636298  1
  Ti  Ti11  1  0.00039302  0.49977068  0.90042699  1
  Nb  Nb12  1  0.00012660  -0.00124543  0.60082849  1
  Nb  Nb13  1  0.49919111  0.99990983  0.69867636  1
  Nb  Nb14  1  0.50002407  0.49892111  0.60037424  1
  Nb  Nb15  1  0.49995534  0.00018360  0.90132546  1
  Ni  Ni16  1  0.99031603  1.00606697  0.20193109  1
  Ni  Ni17  1  0.96978447  0.47786024  0.30029537  1
  Ni  Ni18  1  0.53414939  0.99709954  0.29815583  1
  Ni  Ni19  1  0.00665947  0.49083319  0.69959639  1
  C  C20  1  -0.00227058  0.99863766  0.10267551  1
  C  C21  1  0.99818801  0.49818532  -0.00221422  1
  C  C22  1  0.49769119  -0.00042714  0.99873531  1
  C  C23  1  0.49694132  0.50147332  0.10598444  1
  C  C24  1  0.98235153  0.02749685  0.28743421  1
  C  C25  1  0.99182109  0.48679767  0.20904673  1
  C  C26  1  0.50734389  0.00170949  0.21225226  1
  C  C27  1  0.53608435  0.53577458  0.30315258  1
  C  C28  1  0.00122057  0.99893108  0.49881265  1
  C  C29  1  1.00068835  0.49548752  0.39915618  1
  C  C30  1  0.50334015  -0.00316769  0.38774096  1
  C  C31  1  0.50078582  0.49873404  0.50186221  1
  C  C32  1  0.99919925  1.00469335  0.70140713  1
  C  C33  1  0.99991924  0.49864793  0.60249526  1
  C  C34  1  0.50041137  0.99877751  0.60056276  1
  C  C35  1  0.49516793  0.49994011  0.69758716  1
  C  C36  1  -0.00082619  -0.00013017  0.89885115  1
  C  C37  1  0.00135616  0.49898764  0.79726346  1
  C  C38  1  0.50116568  0.99924868  0.79885735  1
  C  C39  1  0.49956271  0.50046752  0.89856446  1
