# generated using pymatgen
data_HfTaTiMnNbC5
_symmetry_space_group_name_H-M   'P 1'
_cell_length_a   4.49657307
_cell_length_b   4.47669115
_cell_length_c   21.97615901
_cell_angle_alpha   90.00878268
_cell_angle_beta   89.99042425
_cell_angle_gamma   89.85631472
_symmetry_Int_Tables_number   1
_chemical_formula_structural   HfTaTiMnNbC5
_chemical_formula_sum   'Hf4 Ta4 Ti4 Mn4 Nb4 C20'
_cell_volume   442.37359905
_cell_formula_units_Z   4
loop_
 _symmetry_equiv_pos_site_id
 _symmetry_equiv_pos_as_xyz
  1  'x, y, z'
loop_
 _atom_site_type_symbol
 _atom_site_label
 _atom_site_symmetry_multiplicity
 _atom_site_fract_x
 _atom_site_fract_y
 _atom_site_fract_z
 _atom_site_occupancy
  Hf  Hf0  1  0.50138904  -0.00047184  0.10156273  1
  Hf  Hf1  1  1.00328892  0.50130989  0.30155256  1
  Hf  Hf2  1  0.00371209  0.00028136  0.79615744  1
  Hf  Hf3  1  0.50375462  1.00064912  0.90139751  1
  Ta  Ta4  1  0.99917634  0.50104416  0.09938195  1
  Ta  Ta5  1  -0.00234614  0.49676969  0.50136842  1
  Ta  Ta6  1  0.99207340  0.49825856  0.69510270  1
  Ta  Ta7  1  0.49573682  0.49941658  0.60003436  1
  Ti  Ti8  1  0.49353547  0.49943526  1.00081018  1
  Ti  Ti9  1  0.49997334  0.50044076  0.20289941  1
  Ti  Ti10  1  -0.00025558  1.00021813  0.40202570  1
  Ti  Ti11  1  0.49962446  0.99941443  0.49888768  1
  Mn  Mn12  1  0.03862582  0.04272563  1.00067269  1
  Mn  Mn13  1  0.53955527  0.03744520  0.30275390  1
  Mn  Mn14  1  0.04919892  -0.02209590  0.59695666  1
  Mn  Mn15  1  0.54346256  0.02219417  0.69536986  1
  Nb  Nb16  1  0.00200105  0.99857280  0.20267296  1
  Nb  Nb17  1  0.50001735  0.50387818  0.40123226  1
  Nb  Nb18  1  1.00118429  0.50236747  0.90298550  1
  Nb  Nb19  1  0.50012643  0.50100698  0.79574817  1
  C  C20  1  -0.00101813  1.00004844  0.09593493  1
  C  C21  1  -0.00664225  0.46416344  0.00109650  1
  C  C22  1  0.45899562  -0.00467286  1.00121735  1
  C  C23  1  0.50179644  0.50047425  0.10126850  1
  C  C24  1  0.96323627  0.99816770  0.30366312  1
  C  C25  1  1.00273442  0.49953752  0.19922156  1
  C  C26  1  0.49899324  -0.00387854  0.20942169  1
  C  C27  1  0.49894749  0.46249470  0.29997270  1
  C  C28  1  0.99794993  0.99837164  0.50390019  1
  C  C29  1  0.00229437  0.50497414  0.40305545  1
  C  C30  1  0.49787852  0.00191878  0.39689992  1
  C  C31  1  0.50054168  0.49466308  0.50086222  1
  C  C32  1  0.95744470  -0.00170058  0.69038764  1
  C  C33  1  -0.00286862  0.51798170  0.59851115  1
  C  C34  1  0.46133903  1.00068726  0.60215820  1
  C  C35  1  0.49370699  0.47847533  0.69733709  1
  C  C36  1  0.00124481  1.00101829  0.90599712  1
  C  C37  1  1.00346358  0.50124624  0.79789091  1
  C  C38  1  0.50262927  0.00030507  0.79101509  1
  C  C39  1  0.50343152  0.50175587  0.90085571  1
