# generated using pymatgen
data_HfTaTiNbNiC5
_symmetry_space_group_name_H-M   'P 1'
_cell_length_a   4.43221131
_cell_length_b   4.44260797
_cell_length_c   22.21216122
_cell_angle_alpha   89.99115583
_cell_angle_beta   90.00537207
_cell_angle_gamma   90.00375551
_symmetry_Int_Tables_number   1
_chemical_formula_structural   HfTaTiNbNiC5
_chemical_formula_sum   'Hf4 Ta4 Ti4 Nb4 Ni4 C20'
_cell_volume   437.37026980
_cell_formula_units_Z   4
loop_
 _symmetry_equiv_pos_site_id
 _symmetry_equiv_pos_as_xyz
  1  'x, y, z'
loop_
 _atom_site_type_symbol
 _atom_site_label
 _atom_site_symmetry_multiplicity
 _atom_site_fract_x
 _atom_site_fract_y
 _atom_site_fract_z
 _atom_site_occupancy
  Hf  Hf0  1  -0.00004301  0.49959654  0.09160689  1
  Hf  Hf1  1  0.50007682  0.50027112  -0.01218447  1
  Hf  Hf2  1  1.00023569  0.49990725  0.30404104  1
  Hf  Hf3  1  0.50022132  0.99993005  0.51319432  1
  Ta  Ta4  1  0.99971863  1.00047218  0.19750553  1
  Ta  Ta5  1  0.50020929  0.99966319  0.30323458  1
  Ta  Ta6  1  0.49958007  0.50026574  0.40940362  1
  Ta  Ta7  1  0.49851775  0.50004119  0.79367621  1
  Ti  Ti8  1  0.99973306  1.00046573  -0.01552008  1
  Ti  Ti9  1  0.00040112  0.50012211  0.51593044  1
  Ti  Ti10  1  0.50192160  -0.00077418  0.70001544  1
  Ti  Ti11  1  0.50109463  0.49947346  0.61029926  1
  Nb  Nb12  1  0.49974314  -0.00067361  0.09343531  1
  Nb  Nb13  1  0.49971818  0.50065493  0.19760249  1
  Nb  Nb14  1  -0.00066339  0.00063440  0.41107667  1
  Nb  Nb15  1  0.49920457  1.00069644  0.88848183  1
  Ni  Ni16  1  0.00162172  0.99718951  0.61342169  1
  Ni  Ni17  1  0.99617370  0.48040400  0.69938359  1
  Ni  Ni18  1  0.99827493  0.98691799  0.79800462  1
  Ni  Ni19  1  0.99945363  0.51324079  0.88807086  1
  C  C20  1  0.99988496  -0.00034437  0.09555451  1
  C  C21  1  0.00011656  0.50153277  -0.01267908  1
  C  C22  1  0.50025470  1.00069547  -0.00688605  1
  C  C23  1  0.49997285  0.49956052  0.09669178  1
  C  C24  1  0.00037995  -0.00042233  0.30142767  1
  C  C25  1  0.99979761  0.50053646  0.19926687  1
  C  C26  1  0.49984175  1.00075068  0.20036094  1
  C  C27  1  0.50030105  0.49923637  0.30453579  1
  C  C28  1  1.00035888  1.00002878  0.51047973  1
  C  C29  1  0.99961041  0.50048792  0.40872798  1
  C  C30  1  0.49931310  1.00018299  0.40388281  1
  C  C31  1  0.50053826  0.49989390  0.50807208  1
  C  C32  1  1.00067335  0.01127686  0.70297499  1
  C  C33  1  1.00034737  0.50291741  0.60843736  1
  C  C34  1  0.49953865  -0.00098202  0.60911603  1
  C  C35  1  0.50331100  0.50012501  0.69989913  1
  C  C36  1  0.99933588  0.99697004  0.89031907  1
  C  C37  1  0.99973504  0.50828127  0.79452525  1
  C  C38  1  0.50041886  -0.00011073  0.79426121  1
  C  C39  1  0.50021808  0.50027595  0.89015854  1
