# generated using pymatgen
data_HfTaTiNbCoC5
_symmetry_space_group_name_H-M   'P 1'
_cell_length_a   4.45684696
_cell_length_b   4.46112380
_cell_length_c   21.85857665
_cell_angle_alpha   90.22070786
_cell_angle_beta   90.01237970
_cell_angle_gamma   90.01615873
_symmetry_Int_Tables_number   1
_chemical_formula_structural   HfTaTiNbCoC5
_chemical_formula_sum   'Hf4 Ta4 Ti4 Nb4 Co4 C20'
_cell_volume   434.60090411
_cell_formula_units_Z   4
loop_
 _symmetry_equiv_pos_site_id
 _symmetry_equiv_pos_as_xyz
  1  'x, y, z'
loop_
 _atom_site_type_symbol
 _atom_site_label
 _atom_site_symmetry_multiplicity
 _atom_site_fract_x
 _atom_site_fract_y
 _atom_site_fract_z
 _atom_site_occupancy
  Hf  Hf0  1  -0.00033856  0.99843822  -0.00250004  1
  Hf  Hf1  1  0.50058651  -0.00083066  0.10752193  1
  Hf  Hf2  1  0.49960845  0.49864293  -0.00299650  1
  Hf  Hf3  1  1.00019319  0.52011845  0.50679710  1
  Ta  Ta4  1  1.00040472  0.49969324  0.10654938  1
  Ta  Ta5  1  0.50132664  0.49982696  0.21351842  1
  Ta  Ta6  1  0.49967107  -0.00294789  0.89076867  1
  Ta  Ta7  1  0.49952544  0.49390432  0.78757814  1
  Ti  Ti8  1  0.00132059  0.50395124  0.30962583  1
  Ti  Ti9  1  0.99626573  1.01531971  0.40562899  1
  Ti  Ti10  1  1.00830727  0.49416439  0.69134666  1
  Ti  Ti11  1  -0.00062626  0.49671541  0.89148179  1
  Nb  Nb12  1  1.00119165  1.00032912  0.21527577  1
  Nb  Nb13  1  0.49783306  0.51872368  0.40525890  1
  Nb  Nb14  1  0.51076925  -0.01731359  0.68038381  1
  Nb  Nb15  1  -0.00029841  -0.00622614  0.78730278  1
  Co  Co16  1  0.49351224  0.01808735  0.31121224  1
  Co  Co17  1  0.45968886  0.04338320  0.49903192  1
  Co  Co18  1  1.02994785  0.03835696  0.59601823  1
  Co  Co19  1  0.52845207  0.44373468  0.59647300  1
  C  C20  1  1.00072959  0.99971253  0.10579986  1
  C  C21  1  0.99956837  0.49840993  0.99982284  1
  C  C22  1  0.49970782  -0.00130898  0.99585357  1
  C  C23  1  0.50017992  0.49908193  0.10624030  1
  C  C24  1  1.01042072  1.00555380  0.31098147  1
  C  C25  1  0.00009901  0.50121375  0.20807950  1
  C  C26  1  0.50150801  0.00041421  0.21539933  1
  C  C27  1  0.50055871  0.49354414  0.30836497  1
  C  C28  1  1.04139577  1.01134949  0.50560424  1
  C  C29  1  0.99494735  0.51550011  0.40413589  1
  C  C30  1  0.50023657  0.01311834  0.40884382  1
  C  C31  1  0.50074645  0.48132088  0.50788079  1
  C  C32  1  0.00868473  0.98650289  0.68630632  1
  C  C33  1  0.94672753  0.45046055  0.60240119  1
  C  C34  1  0.46262409  0.02036425  0.58477154  1
  C  C35  1  0.50230139  0.48838961  0.68732333  1
  C  C36  1  -0.00002571  -0.00332558  0.89214240  1
  C  C37  1  -0.00080241  0.49352203  0.79237300  1
  C  C38  1  0.49991766  0.99423921  0.78955102  1
  C  C39  1  0.49947103  0.49697129  0.89121226  1
