# generated using pymatgen
data_HfScTaTiNbC5
_symmetry_space_group_name_H-M   'P 1'
_cell_length_a   4.52358712
_cell_length_b   4.52322129
_cell_length_c   22.63764956
_cell_angle_alpha   89.99936244
_cell_angle_beta   90.00165020
_cell_angle_gamma   89.99992000
_symmetry_Int_Tables_number   1
_chemical_formula_structural   HfScTaTiNbC5
_chemical_formula_sum   'Hf4 Sc4 Ta4 Ti4 Nb4 C20'
_cell_volume   463.19314805
_cell_formula_units_Z   4
loop_
 _symmetry_equiv_pos_site_id
 _symmetry_equiv_pos_as_xyz
  1  'x, y, z'
loop_
 _atom_site_type_symbol
 _atom_site_label
 _atom_site_symmetry_multiplicity
 _atom_site_fract_x
 _atom_site_fract_y
 _atom_site_fract_z
 _atom_site_occupancy
  Hf  Hf0  1  0.49997137  0.99986321  0.29906296  1
  Hf  Hf1  1  0.50003423  0.50026050  0.40123356  1
  Hf  Hf2  1  0.50031906  1.00044011  0.69858827  1
  Hf  Hf3  1  0.99937729  0.49970868  0.89917498  1
  Sc  Sc4  1  0.00002794  0.49950675  0.10019154  1
  Sc  Sc5  1  0.50020440  0.49984219  -0.00030987  1
  Sc  Sc6  1  1.00000122  0.49983500  0.29957431  1
  Sc  Sc7  1  0.50038283  0.50025969  0.60060792  1
  Ta  Ta8  1  1.00000809  0.99984010  0.19863734  1
  Ta  Ta9  1  0.99990774  1.00000068  0.40298714  1
  Ta  Ta10  1  1.00024764  0.49967428  0.50312681  1
  Ta  Ta11  1  -0.00022656  0.99997149  0.79887176  1
  Ti  Ti12  1  0.50071709  0.49965354  0.19926881  1
  Ti  Ti13  1  0.49941536  0.00154606  0.50298532  1
  Ti  Ti14  1  0.00172708  0.50129813  0.69860519  1
  Ti  Ti15  1  0.49794123  1.00088449  0.89994828  1
  Nb  Nb16  1  0.00021497  0.99959559  -0.00006236  1
  Nb  Nb17  1  0.49996000  0.99924685  0.10037534  1
  Nb  Nb18  1  0.00037368  0.00030030  0.59935000  1
  Nb  Nb19  1  0.50017457  0.50075011  0.79895185  1
  C  C20  1  0.99999286  -0.00043810  0.10020070  1
  C  C21  1  1.00006799  0.50042061  -0.00218095  1
  C  C22  1  0.49976852  0.99997126  -0.00174398  1
  C  C23  1  0.49985866  0.50012491  0.10437436  1
  C  C24  1  -0.00000333  -0.00026941  0.30120190  1
  C  C25  1  -0.00027263  0.50015455  0.19985078  1
  C  C26  1  0.50012884  1.00052733  0.19876237  1
  C  C27  1  0.49982212  0.49987195  0.29730019  1
  C  C28  1  0.00008329  0.99942462  0.50063698  1
  C  C29  1  -0.00004473  0.50025670  0.40488729  1
  C  C30  1  0.50044155  0.99982159  0.40348837  1
  C  C31  1  0.50007174  0.49859515  0.50059411  1
  C  C32  1  1.00014372  0.99920946  0.70042589  1
  C  C33  1  1.00006246  0.49987286  0.60166347  1
  C  C34  1  0.49960678  -0.00002272  0.59728086  1
  C  C35  1  0.49884491  0.49981762  0.70179857  1
  C  C36  1  0.00109043  -0.00045577  0.89735172  1
  C  C37  1  -0.00068462  0.49995955  0.79597658  1
  C  C38  1  0.50018852  0.99942405  0.80195333  1
  C  C39  1  0.50017942  0.49806615  0.89631200  1
