# generated using pymatgen
data_HfTaTiNbCrC5
_symmetry_space_group_name_H-M   'P 1'
_cell_length_a   4.43633785
_cell_length_b   4.43607085
_cell_length_c   22.16484958
_cell_angle_alpha   89.98938560
_cell_angle_beta   89.99502390
_cell_angle_gamma   90.00021344
_symmetry_Int_Tables_number   1
_chemical_formula_structural   HfTaTiNbCrC5
_chemical_formula_sum   'Hf4 Ta4 Ti4 Nb4 Cr4 C20'
_cell_volume   436.20221372
_cell_formula_units_Z   4
loop_
 _symmetry_equiv_pos_site_id
 _symmetry_equiv_pos_as_xyz
  1  'x, y, z'
loop_
 _atom_site_type_symbol
 _atom_site_label
 _atom_site_symmetry_multiplicity
 _atom_site_fract_x
 _atom_site_fract_y
 _atom_site_fract_z
 _atom_site_occupancy
  Hf  Hf0  1  0.49858127  0.99988579  0.30346701  1
  Hf  Hf1  1  0.49997801  0.50028079  0.19631933  1
  Hf  Hf2  1  1.00016030  0.49995536  0.49917033  1
  Hf  Hf3  1  0.50033203  0.50001621  0.80611075  1
  Ta  Ta4  1  0.50049389  0.50066739  -0.00464932  1
  Ta  Ta5  1  0.50028480  -0.00018014  0.49986260  1
  Ta  Ta6  1  0.49934024  -0.00025269  0.69929760  1
  Ta  Ta7  1  0.99951427  -0.00057412  0.80810924  1
  Ti  Ti8  1  0.00065140  0.00116870  -0.00548334  1
  Ti  Ti9  1  1.00016694  0.50146349  0.09337720  1
  Ti  Ti10  1  0.50016551  0.00125102  0.09348287  1
  Ti  Ti11  1  0.50075357  0.49937600  0.40048860  1
  Nb  Nb12  1  0.99979717  0.99996070  0.19560406  1
  Nb  Nb13  1  -0.00056464  0.49980147  0.30332271  1
  Nb  Nb14  1  0.99979558  0.49971664  0.69924739  1
  Nb  Nb15  1  0.50121327  0.50012524  0.60112455  1
  Cr  Cr16  1  -0.01092501  0.01035634  0.40072865  1
  Cr  Cr17  1  0.00635616  0.99343306  0.60029198  1
  Cr  Cr18  1  1.00915181  0.51070325  0.90345538  1
  Cr  Cr19  1  0.51076762  0.00889812  0.90369475  1
  C  C20  1  0.99909688  0.99763607  0.09523031  1
  C  C21  1  1.00070276  0.50089644  0.99490302  1
  C  C22  1  0.50108099  0.00088040  -0.00524532  1
  C  C23  1  0.49943627  0.49857750  0.09473523  1
  C  C24  1  0.99921539  0.99962396  0.30483151  1
  C  C25  1  -0.00006955  0.49919334  0.19638728  1
  C  C26  1  0.49986239  0.00000558  0.19566096  1
  C  C27  1  0.49897907  0.50045263  0.30187561  1
  C  C28  1  1.00042023  -0.00006991  0.50257972  1
  C  C29  1  1.00036398  0.48798500  0.39951913  1
  C  C30  1  0.51191112  0.99902996  0.40357116  1
  C  C31  1  0.49963034  0.49974685  0.49930052  1
  C  C32  1  0.99948725  0.00006391  0.69731456  1
  C  C33  1  0.00005758  0.50895877  0.60217981  1
  C  C34  1  0.49332282  1.00032151  0.60114526  1
  C  C35  1  0.49984881  0.49916308  0.70107957  1
  C  C36  1  0.98867476  0.98994587  0.90210538  1
  C  C37  1  1.00023200  0.49990019  0.80755108  1
  C  C38  1  0.49973457  1.00016786  0.80560068  1
  C  C39  1  0.48956169  0.49006718  0.90222061  1
