# generated using pymatgen
data_HfTaTiNbMoC5
_symmetry_space_group_name_H-M   'P 1'
_cell_length_a   4.47979448
_cell_length_b   4.47718644
_cell_length_c   22.38769287
_cell_angle_alpha   89.99948904
_cell_angle_beta   90.00577112
_cell_angle_gamma   90.00163529
_symmetry_Int_Tables_number   1
_chemical_formula_structural   HfTaTiNbMoC5
_chemical_formula_sum   'Hf4 Ta4 Ti4 Nb4 Mo4 C20'
_cell_volume   449.02715756
_cell_formula_units_Z   4
loop_
 _symmetry_equiv_pos_site_id
 _symmetry_equiv_pos_as_xyz
  1  'x, y, z'
loop_
 _atom_site_type_symbol
 _atom_site_label
 _atom_site_symmetry_multiplicity
 _atom_site_fract_x
 _atom_site_fract_y
 _atom_site_fract_z
 _atom_site_occupancy
  Hf  Hf0  1  0.00010230  1.00045995  -0.00385690  1
  Hf  Hf1  1  1.00024356  0.50036796  0.09762503  1
  Hf  Hf2  1  0.99979367  0.00027312  0.20363192  1
  Hf  Hf3  1  0.99778619  1.00024889  0.79941414  1
  Ta  Ta4  1  0.49988932  0.49990250  0.20397652  1
  Ta  Ta5  1  -0.00081772  0.49973978  0.50233450  1
  Ta  Ta6  1  0.00004147  0.49928509  0.69643661  1
  Ta  Ta7  1  0.49916866  0.99914871  0.69644240  1
  Ti  Ti8  1  0.99858751  0.50021170  0.30574672  1
  Ti  Ti9  1  -0.00073695  1.00107666  0.40177843  1
  Ti  Ti10  1  0.50197354  0.50033203  0.59932091  1
  Ti  Ti11  1  1.00036608  0.50032357  0.89729827  1
  Nb  Nb12  1  0.50004871  0.00046046  0.09755414  1
  Nb  Nb13  1  0.49970736  0.00035606  0.30565843  1
  Nb  Nb14  1  0.49951265  0.00038787  0.50308855  1
  Nb  Nb15  1  0.49965424  0.50089439  0.40203307  1
  Mo  Mo16  1  0.50429321  0.50701742  -0.00987724  1
  Mo  Mo17  1  0.01893058  0.01221065  0.59685024  1
  Mo  Mo18  1  0.48887558  0.01489323  0.89976012  1
  Mo  Mo19  1  0.48683784  0.51065901  0.80399949  1
  C  C20  1  0.00030830  0.00023000  0.10011872  1
  C  C21  1  0.99638231  0.50007660  -0.00523980  1
  C  C22  1  0.50001070  0.99390749  -0.00379421  1
  C  C23  1  0.49990546  0.49900014  0.09971851  1
  C  C24  1  0.00034458  -0.00078959  0.30633471  1
  C  C25  1  -0.00000882  0.49994647  0.20523344  1
  C  C26  1  0.49996873  0.99913411  0.20144992  1
  C  C27  1  0.50023933  0.49972400  0.30199103  1
  C  C28  1  0.99904092  -0.00083329  0.50047809  1
  C  C29  1  0.99993433  0.49864897  0.40230005  1
  C  C30  1  0.49946425  -0.00044032  0.40337875  1
  C  C31  1  0.49997024  0.50047414  0.50371189  1
  C  C32  1  -0.00214859  -0.00133958  0.69597020  1
  C  C33  1  0.99804445  0.49444999  0.60028377  1
  C  C34  1  0.49437807  0.99769623  0.60128197  1
  C  C35  1  0.50146154  0.49878662  0.69822832  1
  C  C36  1  0.00689130  0.99846911  0.89725023  1
  C  C37  1  0.00816804  0.49844900  0.79805720  1
  C  C38  1  0.50086570  -0.01087467  0.79811358  1
  C  C39  1  0.50318571  0.49145940  0.89635976  1
