# generated using pymatgen
data_HfMgTaTiNbC5
_symmetry_space_group_name_H-M   'P 1'
_cell_length_a   4.49696378
_cell_length_b   4.49490144
_cell_length_c   22.49399901
_cell_angle_alpha   90.00072108
_cell_angle_beta   89.99809966
_cell_angle_gamma   89.99955920
_symmetry_Int_Tables_number   1
_chemical_formula_structural   HfMgTaTiNbC5
_chemical_formula_sum   'Hf4 Mg4 Ta4 Ti4 Nb4 C20'
_cell_volume   454.68040112
_cell_formula_units_Z   4
loop_
 _symmetry_equiv_pos_site_id
 _symmetry_equiv_pos_as_xyz
  1  'x, y, z'
loop_
 _atom_site_type_symbol
 _atom_site_label
 _atom_site_symmetry_multiplicity
 _atom_site_fract_x
 _atom_site_fract_y
 _atom_site_fract_z
 _atom_site_occupancy
  Hf  Hf0  1  0.50007404  0.99977598  0.09283931  1
  Hf  Hf1  1  0.00000858  0.49975911  0.30473694  1
  Hf  Hf2  1  0.50000137  -0.00026180  0.30438600  1
  Hf  Hf3  1  0.49978478  0.50001625  0.19903077  1
  Mg  Mg4  1  0.50012128  0.50008748  0.99330529  1
  Mg  Mg5  1  0.49994384  1.00005608  0.50570734  1
  Mg  Mg6  1  -0.00072114  0.99999219  0.79770830  1
  Mg  Mg7  1  0.49988264  0.49977101  0.79839992  1
  Ta  Ta8  1  1.00018014  0.49993249  0.09363678  1
  Ta  Ta9  1  0.99996731  0.99984887  0.40818771  1
  Ta  Ta10  1  0.00062973  0.50033078  0.50513231  1
  Ta  Ta11  1  0.49945960  -0.00022908  0.70454559  1
  Ti  Ti12  1  0.49982497  0.49949936  0.40810783  1
  Ti  Ti13  1  0.99899743  0.00199309  0.60344032  1
  Ti  Ti14  1  1.00009108  0.50037490  0.70483147  1
  Ti  Ti15  1  0.49860425  0.99990266  0.89243832  1
  Nb  Nb16  1  1.00021070  0.00074131  -0.00832416  1
  Nb  Nb17  1  0.99982650  1.00028787  0.19800663  1
  Nb  Nb18  1  0.50009221  0.50076622  0.60304581  1
  Nb  Nb19  1  0.99959854  0.50009083  0.89090487  1
  C  C20  1  1.00004017  -0.00047868  0.09767368  1
  C  C21  1  1.00008047  0.49997716  0.99762381  1
  C  C22  1  0.49989030  0.00002319  -0.00741919  1
  C  C23  1  0.50018425  0.49978447  0.09762435  1
  C  C24  1  1.00001206  0.99958338  0.30318321  1
  C  C25  1  -0.00020665  0.49967998  0.19766567  1
  C  C26  1  0.49974104  -0.00003360  0.19982294  1
  C  C27  1  0.50004830  0.49985504  0.30592572  1
  C  C28  1  1.00008963  0.99992799  0.50426530  1
  C  C29  1  0.00005279  0.49976832  0.40609219  1
  C  C30  1  0.50009257  1.00008439  0.40444944  1
  C  C31  1  0.49979761  0.50004436  0.50183128  1
  C  C32  1  0.00050685  -0.00025845  0.69725083  1
  C  C33  1  0.00029866  0.49820902  0.60217928  1
  C  C34  1  0.50093561  0.99954913  0.60459775  1
  C  C35  1  0.49995606  0.49994110  0.69913781  1
  C  C36  1  0.00099915  0.99983333  0.89717500  1
  C  C37  1  0.99995065  0.50003512  0.79500744  1
  C  C38  1  0.49959109  0.99983884  0.79973842  1
  C  C39  1  0.50104993  0.49992432  0.89581770  1
