# generated using pymatgen
data_HfTaTiNbVC5
_symmetry_space_group_name_H-M   'P 1'
_cell_length_a   4.44464246
_cell_length_b   4.44297408
_cell_length_c   22.23333567
_cell_angle_alpha   89.99664740
_cell_angle_beta   89.99689470
_cell_angle_gamma   90.00035543
_symmetry_Int_Tables_number   1
_chemical_formula_structural   HfTaTiNbVC5
_chemical_formula_sum   'Hf4 Ta4 Ti4 Nb4 V4 C20'
_cell_volume   439.05126580
_cell_formula_units_Z   4
loop_
 _symmetry_equiv_pos_site_id
 _symmetry_equiv_pos_as_xyz
  1  'x, y, z'
loop_
 _atom_site_type_symbol
 _atom_site_label
 _atom_site_symmetry_multiplicity
 _atom_site_fract_x
 _atom_site_fract_y
 _atom_site_fract_z
 _atom_site_occupancy
  Hf  Hf0  1  0.50109717  0.50041731  0.19668401  1
  Hf  Hf1  1  -0.00027819  0.00013864  0.39919935  1
  Hf  Hf2  1  -0.00065694  0.50057000  0.69712345  1
  Hf  Hf3  1  1.00014971  0.50002809  0.90434576  1
  Ta  Ta4  1  0.49964371  1.00023525  0.29604186  1
  Ta  Ta5  1  1.00021733  0.50019673  0.50238874  1
  Ta  Ta6  1  1.00079759  0.00043068  0.79700168  1
  Ta  Ta7  1  0.50047754  -0.00009162  0.90235226  1
  Ti  Ti8  1  0.00012275  -0.00035469  1.00879931  1
  Ti  Ti9  1  0.50067047  -0.00078346  0.10113633  1
  Ti  Ti10  1  1.00010868  0.50036957  0.29475528  1
  Ti  Ti11  1  0.50007398  0.99995081  0.50483781  1
  Nb  Nb12  1  0.50004106  0.49981238  0.00560517  1
  Nb  Nb13  1  0.49982007  0.50015995  0.39934001  1
  Nb  Nb14  1  0.49982842  0.49910404  0.60058756  1
  Nb  Nb15  1  0.49999318  0.50094877  0.79728783  1
  V  V16  1  0.00424949  0.49421373  0.10218415  1
  V  V17  1  0.00184677  0.00108784  0.19434820  1
  V  V18  1  -0.00724139  0.00327523  0.60081976  1
  V  V19  1  0.49673238  0.00153388  0.69445071  1
  C  C20  1  0.99992299  1.00297595  0.10363946  1
  C  C21  1  -0.00034038  0.50019378  0.00741962  1
  C  C22  1  0.50031241  -0.00022586  0.00227650  1
  C  C23  1  0.49665690  0.49956340  0.09962817  1
  C  C24  1  0.99942189  0.99984854  0.29328481  1
  C  C25  1  0.00044082  0.50000875  0.19667109  1
  C  C26  1  0.49897989  0.00020359  0.19824837  1
  C  C27  1  0.49983210  0.50011362  0.29940287  1
  C  C28  1  0.00115966  1.00002707  0.50473008  1
  C  C29  1  -0.00002001  0.49998611  0.39803112  1
  C  C30  1  0.49988364  1.00023091  0.40078077  1
  C  C31  1  0.50013563  0.50040575  0.50030274  1
  C  C32  1  0.00397340  0.00036227  0.69657992  1
  C  C33  1  -0.00045105  0.49744955  0.59786275  1
  C  C34  1  0.50573474  -0.00039904  0.60241323  1
  C  C35  1  0.49913186  0.49908198  0.69920994  1
  C  C36  1  1.00038763  1.00025263  0.90186680  1
  C  C37  1  0.99987511  0.50043144  0.80052477  1
  C  C38  1  0.50082897  0.99984606  0.79683563  1
  C  C39  1  0.49993729  0.49989908  0.90091425  1
