# generated using pymatgen
data_HfTiNbVCoC5
_symmetry_space_group_name_H-M   'P 1'
_cell_length_a   4.38603727
_cell_length_b   4.38712491
_cell_length_c   21.59062637
_cell_angle_alpha   89.98088159
_cell_angle_beta   90.03810945
_cell_angle_gamma   89.96470226
_symmetry_Int_Tables_number   1
_chemical_formula_structural   HfTiNbVCoC5
_chemical_formula_sum   'Hf4 Ti4 Nb4 V4 Co4 C20'
_cell_volume   415.44865490
_cell_formula_units_Z   4
loop_
 _symmetry_equiv_pos_site_id
 _symmetry_equiv_pos_as_xyz
  1  'x, y, z'
loop_
 _atom_site_type_symbol
 _atom_site_label
 _atom_site_symmetry_multiplicity
 _atom_site_fract_x
 _atom_site_fract_y
 _atom_site_fract_z
 _atom_site_occupancy
  Hf  Hf0  1  -0.00139070  0.49980220  0.09492736  1
  Hf  Hf1  1  -0.00290942  0.99815698  0.19561332  1
  Hf  Hf2  1  -0.00183504  0.49961562  0.30282532  1
  Hf  Hf3  1  0.99917134  0.50140619  0.89098096  1
  Ti  Ti4  1  0.50073857  0.50120993  0.99884110  1
  Ti  Ti5  1  0.49797769  -0.00007737  0.30064374  1
  Ti  Ti6  1  -0.00218923  0.99969087  0.40826160  1
  Ti  Ti7  1  0.49457948  0.49999037  0.79277045  1
  Nb  Nb8  1  0.50087493  0.00074244  0.50912686  1
  Nb  Nb9  1  0.49795577  0.49967693  0.40618179  1
  Nb  Nb10  1  0.48865857  0.50288051  0.60672385  1
  Nb  Nb11  1  0.49716648  1.00131153  0.89617448  1
  V  V12  1  0.01443709  1.00225649  -0.00225184  1
  V  V13  1  0.49761873  0.49253886  0.19411405  1
  V  V14  1  0.00066490  0.48873112  0.51196403  1
  V  V15  1  0.52138322  0.99839071  0.70110732  1
  Co  Co16  1  0.49946851  1.00112237  0.09482583  1
  Co  Co17  1  1.02022282  0.01853104  0.60834321  1
  Co  Co18  1  0.97424538  0.46570054  0.69763167  1
  Co  Co19  1  0.03590302  0.02668211  0.78182170  1
  C  C20  1  0.98711002  0.99977990  0.09002788  1
  C  C21  1  1.00088623  0.49948818  0.99420843  1
  C  C22  1  0.48741509  1.00084542  0.00295772  1
  C  C23  1  0.49842567  0.50166389  0.10080597  1
  C  C24  1  0.99779975  -0.00041500  0.30614769  1
  C  C25  1  -0.00156163  0.49889466  0.19908756  1
  C  C26  1  0.49719752  0.00746704  0.19346728  1
  C  C27  1  0.49813886  0.50163562  0.29749346  1
  C  C28  1  -0.00127529  1.00860401  0.51330639  1
  C  C29  1  -0.00257915  0.49968253  0.41186939  1
  C  C30  1  0.49756153  -0.00042182  0.40302415  1
  C  C31  1  0.49988459  0.50110958  0.50572754  1
  C  C32  1  1.01028821  0.01223621  0.69767317  1
  C  C33  1  -0.00386055  0.48750480  0.60788344  1
  C  C34  1  0.48192991  0.00016108  0.60868149  1
  C  C35  1  0.53846234  0.50338441  0.70124398  1
  C  C36  1  0.99705040  0.00133266  0.89953685  1
  C  C37  1  1.00250837  0.48100179  0.78583988  1
  C  C38  1  0.48166491  0.99814274  0.79393486  1
  C  C39  1  0.50031116  0.50235425  0.89544387  1
