# generated using pymatgen
data_HfTiMnNbVC5
_symmetry_space_group_name_H-M   'P 1'
_cell_length_a   4.41557594
_cell_length_b   4.41520179
_cell_length_c   21.70427205
_cell_angle_alpha   90.18959353
_cell_angle_beta   90.11882500
_cell_angle_gamma   89.98612855
_symmetry_Int_Tables_number   1
_chemical_formula_structural   HfTiMnNbVC5
_chemical_formula_sum   'Hf4 Ti4 Mn4 Nb4 V4 C20'
_cell_volume   423.13584462
_cell_formula_units_Z   4
loop_
 _symmetry_equiv_pos_site_id
 _symmetry_equiv_pos_as_xyz
  1  'x, y, z'
loop_
 _atom_site_type_symbol
 _atom_site_label
 _atom_site_symmetry_multiplicity
 _atom_site_fract_x
 _atom_site_fract_y
 _atom_site_fract_z
 _atom_site_occupancy
  Hf  Hf0  1  -0.00478788  -0.00609739  0.19385817  1
  Hf  Hf1  1  -0.00010102  1.00096047  0.40419566  1
  Hf  Hf2  1  1.00217564  0.50333291  0.51381735  1
  Hf  Hf3  1  1.00071592  0.49691577  0.89322913  1
  Ti  Ti4  1  -0.00013623  0.99827193  -0.00913318  1
  Ti  Ti5  1  0.00917325  0.49884537  0.09090672  1
  Ti  Ti6  1  -0.00430810  0.49696545  0.29719123  1
  Ti  Ti7  1  0.49674121  0.99988658  0.70604625  1
  Mn  Mn8  1  0.54452973  0.45399316  0.99578447  1
  Mn  Mn9  1  0.46037520  0.46387077  0.20341887  1
  Mn  Mn10  1  -0.01436711  0.48714047  0.70421191  1
  Mn  Mn11  1  0.46459998  -0.03571848  0.89100261  1
  Nb  Nb12  1  0.50074275  -0.00158551  0.08933861  1
  Nb  Nb13  1  0.49660978  -0.00542520  0.29837659  1
  Nb  Nb14  1  0.50214959  0.00302306  0.51445964  1
  Nb  Nb15  1  0.50054141  0.50105128  0.40356983  1
  V  V16  1  0.99947459  0.01170322  0.61602852  1
  V  V17  1  0.49522389  0.49788092  0.61623977  1
  V  V18  1  0.99357066  0.00983044  0.79584021  1
  V  V19  1  0.50769540  0.49744231  0.79612596  1
  C  C20  1  0.00269300  -0.00461027  0.09022524  1
  C  C21  1  0.96841332  0.49905068  0.99504931  1
  C  C22  1  0.50211930  1.03734036  0.98404220  1
  C  C23  1  0.49972131  0.50278862  0.08390043  1
  C  C24  1  0.99350293  0.99464373  0.29893166  1
  C  C25  1  0.03284343  0.49740839  0.19506517  1
  C  C26  1  0.49860590  0.03141517  0.19360618  1
  C  C27  1  0.49722445  0.49748314  0.29234642  1
  C  C28  1  1.00184878  1.00219989  0.51365335  1
  C  C29  1  0.00103467  0.50052502  0.40081334  1
  C  C30  1  0.49986105  1.00184110  0.40446026  1
  C  C31  1  0.50250269  0.50372559  0.51062505  1
  C  C32  1  1.00002961  0.00448090  0.70560482  1
  C  C33  1  0.00584681  0.49594499  0.61489780  1
  C  C34  1  0.50274462  0.00256439  0.61200991  1
  C  C35  1  0.50277053  0.50382050  0.70586879  1
  C  C36  1  1.03665961  -0.00044532  0.89171807  1
  C  C37  1  -0.00590676  0.49921761  0.79295220  1
  C  C38  1  0.50577418  0.01350550  0.80362415  1
  C  C39  1  0.50234724  0.54780851  0.89583302  1
