# generated using pymatgen
data_HfMgTiNbVC5
_symmetry_space_group_name_H-M   'P 1'
_cell_length_a   4.44868956
_cell_length_b   4.44291705
_cell_length_c   22.22384374
_cell_angle_alpha   90.00188540
_cell_angle_beta   89.98964233
_cell_angle_gamma   90.03809657
_symmetry_Int_Tables_number   1
_chemical_formula_structural   HfMgTiNbVC5
_chemical_formula_sum   'Hf4 Mg4 Ti4 Nb4 V4 C20'
_cell_volume   439.25769426
_cell_formula_units_Z   4
loop_
 _symmetry_equiv_pos_site_id
 _symmetry_equiv_pos_as_xyz
  1  'x, y, z'
loop_
 _atom_site_type_symbol
 _atom_site_label
 _atom_site_symmetry_multiplicity
 _atom_site_fract_x
 _atom_site_fract_y
 _atom_site_fract_z
 _atom_site_occupancy
  Hf  Hf0  1  -0.00005235  -0.00070557  1.00671034  1
  Hf  Hf1  1  0.50002168  0.49934302  1.00585284  1
  Hf  Hf2  1  0.00064998  0.99885494  0.79113623  1
  Hf  Hf3  1  0.50042307  0.99922890  0.89764858  1
  Mg  Mg4  1  0.50010512  0.99884529  0.11016323  1
  Mg  Mg5  1  0.49688116  0.50055873  0.20409515  1
  Mg  Mg6  1  0.99984450  0.50134995  0.49388441  1
  Mg  Mg7  1  0.49545484  0.50284892  0.40159760  1
  Ti  Ti8  1  0.00004379  0.49894041  0.11123670  1
  Ti  Ti9  1  0.00282829  -0.00008166  0.39894759  1
  Ti  Ti10  1  1.00006969  0.50026453  0.69191927  1
  Ti  Ti11  1  1.00060069  0.49924112  0.89796395  1
  Nb  Nb12  1  0.00350493  0.99835576  0.20934088  1
  Nb  Nb13  1  0.49905322  0.00024117  0.49696779  1
  Nb  Nb14  1  0.50013319  0.50100281  0.59651393  1
  Nb  Nb15  1  0.50051377  0.49881575  0.79175885  1
  V  V16  1  0.95999827  0.49120113  0.30496474  1
  V  V17  1  0.51994806  0.02225646  0.30476303  1
  V  V18  1  1.01031782  1.00894822  0.59538310  1
  V  V19  1  0.50731959  1.00458416  0.69077197  1
  C  C20  1  0.00007586  -0.00068210  0.10911325  1
  C  C21  1  0.00022549  0.49926498  1.00131862  1
  C  C22  1  0.49969159  0.99937668  0.00025688  1
  C  C23  1  0.50091506  0.49892415  0.10507186  1
  C  C24  1  0.99249168  1.00472605  0.30563334  1
  C  C25  1  1.00094396  0.50020480  0.20879834  1
  C  C26  1  0.49572174  -0.00274125  0.21573532  1
  C  C27  1  0.52940516  0.48798409  0.30315282  1
  C  C28  1  -0.00061825  0.00069709  0.50069662  1
  C  C29  1  -0.00027508  0.50157064  0.39169589  1
  C  C30  1  0.49675258  0.00144942  0.39766097  1
  C  C31  1  0.50024948  0.50062359  0.50041928  1
  C  C32  1  0.99128440  0.99789117  0.68923835  1
  C  C33  1  0.00043174  0.49421266  0.59822735  1
  C  C34  1  0.49178544  0.00028610  0.59935690  1
  C  C35  1  0.50000217  0.49685323  0.69514711  1
  C  C36  1  1.00011418  -0.00074276  0.89710236  1
  C  C37  1  1.00103111  0.49890795  0.79493926  1
  C  C38  1  0.49999851  0.99836244  0.78883598  1
  C  C39  1  0.49993667  0.49929371  0.89526015  1
