# generated using pymatgen
data_HfTiNbVNiC5
_symmetry_space_group_name_H-M   'P 1'
_cell_length_a   4.39717063
_cell_length_b   4.39705496
_cell_length_c   21.76406760
_cell_angle_alpha   89.95389178
_cell_angle_beta   90.02850812
_cell_angle_gamma   89.97444433
_symmetry_Int_Tables_number   1
_chemical_formula_structural   HfTiNbVNiC5
_chemical_formula_sum   'Hf4 Ti4 Nb4 V4 Ni4 C20'
_cell_volume   420.79933047
_cell_formula_units_Z   4
loop_
 _symmetry_equiv_pos_site_id
 _symmetry_equiv_pos_as_xyz
  1  'x, y, z'
loop_
 _atom_site_type_symbol
 _atom_site_label
 _atom_site_symmetry_multiplicity
 _atom_site_fract_x
 _atom_site_fract_y
 _atom_site_fract_z
 _atom_site_occupancy
  Hf  Hf0  1  -0.00087906  0.00104387  0.40091848  1
  Hf  Hf1  1  0.49980557  1.00034383  0.69813795  1
  Hf  Hf2  1  0.50008822  0.50063780  0.58935532  1
  Hf  Hf3  1  0.49987282  0.49928455  0.80618489  1
  Ti  Ti4  1  1.00001544  1.00027631  0.59152101  1
  Ti  Ti5  1  -0.00033400  0.50028171  0.69778028  1
  Ti  Ti6  1  0.00008491  -0.00038988  0.80659012  1
  Ti  Ti7  1  1.00118209  0.50021845  0.91376836  1
  Nb  Nb8  1  0.49299501  0.00342374  0.10153216  1
  Nb  Nb9  1  0.49905816  1.00238293  0.29242427  1
  Nb  Nb10  1  0.49899797  0.50094441  0.39739424  1
  Nb  Nb11  1  0.50149970  -0.00050656  0.91100918  1
  V  V12  1  0.99729459  0.49097109  0.10106634  1
  V  V13  1  0.51609177  0.50830913  0.00852856  1
  V  V14  1  -0.01322407  0.97780624  0.19672126  1
  V  V15  1  0.00421786  0.49972859  0.28811506  1
  Ni  Ni16  1  1.00048083  0.99830603  0.00579996  1
  Ni  Ni17  1  0.52579186  0.50717357  0.19746142  1
  Ni  Ni18  1  0.00213889  0.49818811  0.49587680  1
  Ni  Ni19  1  0.49466629  0.00312772  0.49620603  1
  C  C20  1  0.99738869  0.00549575  0.10341825  1
  C  C21  1  0.99129854  0.50153489  0.00983692  1
  C  C22  1  0.50383228  0.99210158  0.00563677  1
  C  C23  1  0.49279969  0.49972950  0.10105611  1
  C  C24  1  0.00110045  0.00613353  0.29079752  1
  C  C25  1  -0.00427042  0.50579483  0.19664325  1
  C  C26  1  0.50578200  -0.00740913  0.19769147  1
  C  C27  1  0.49561795  0.50065689  0.29124203  1
  C  C28  1  0.00053717  1.00145862  0.50069219  1
  C  C29  1  0.99889804  0.50147723  0.39427637  1
  C  C30  1  0.49933010  0.00046967  0.39809273  1
  C  C31  1  0.49848523  0.50054518  0.49128574  1
  C  C32  1  -0.00025577  1.00068471  0.70130749  1
  C  C33  1  -0.00022131  0.50019743  0.59637385  1
  C  C34  1  0.49965665  0.00015453  0.59251171  1
  C  C35  1  0.49941446  0.50042773  0.69995721  1
  C  C36  1  1.00155170  0.00074761  0.90872688  1
  C  C37  1  -0.00015971  0.49995709  0.80591386  1
  C  C38  1  0.50042553  -0.00084775  0.80572354  1
  C  C39  1  0.50000637  0.49846401  0.91266410  1
