# generated using pymatgen
data_HfScTiNbVC5
_symmetry_space_group_name_H-M   'P 1'
_cell_length_a   4.47337364
_cell_length_b   4.47715911
_cell_length_c   22.33203127
_cell_angle_alpha   90.00719010
_cell_angle_beta   89.99546476
_cell_angle_gamma   90.00241032
_symmetry_Int_Tables_number   1
_chemical_formula_structural   HfScTiNbVC5
_chemical_formula_sum   'Hf4 Sc4 Ti4 Nb4 V4 C20'
_cell_volume   447.26604110
_cell_formula_units_Z   4
loop_
 _symmetry_equiv_pos_site_id
 _symmetry_equiv_pos_as_xyz
  1  'x, y, z'
loop_
 _atom_site_type_symbol
 _atom_site_label
 _atom_site_symmetry_multiplicity
 _atom_site_fract_x
 _atom_site_fract_y
 _atom_site_fract_z
 _atom_site_occupancy
  Hf  Hf0  1  -0.00002924  0.00040669  0.00795943  1
  Hf  Hf1  1  0.49988287  0.50035201  0.00592776  1
  Hf  Hf2  1  0.49930996  0.50002559  0.20595131  1
  Hf  Hf3  1  0.49991575  0.99983755  0.69461668  1
  Sc  Sc4  1  0.50425346  0.50075862  0.39580930  1
  Sc  Sc5  1  -0.00062394  -0.00050229  0.59113181  1
  Sc  Sc6  1  0.99996253  0.49959155  0.69490845  1
  Sc  Sc7  1  1.00008879  -0.00006909  0.80027860  1
  Ti  Ti8  1  -0.00234698  1.00096714  0.20921023  1
  Ti  Ti9  1  0.50019058  0.00066321  0.49146129  1
  Ti  Ti10  1  0.49952390  0.49958666  0.59138386  1
  Ti  Ti11  1  0.49962771  0.99972337  0.90163059  1
  Nb  Nb12  1  0.49962476  -0.00065686  0.10926119  1
  Nb  Nb13  1  0.00087761  0.50109592  0.49096775  1
  Nb  Nb14  1  -0.00027725  0.49985898  0.90198894  1
  Nb  Nb15  1  0.50032075  0.49996637  0.80027759  1
  V  V16  1  0.00086435  0.50193605  0.10949471  1
  V  V17  1  0.99841587  0.50658854  0.30254659  1
  V  V18  1  0.48948360  0.99756355  0.30428910  1
  V  V19  1  0.01193717  0.00443672  0.39121382  1
  C  C20  1  -0.00026026  0.99638739  0.11067857  1
  C  C21  1  0.99961510  0.49984027  0.01013726  1
  C  C22  1  0.50002459  1.00082099  1.00394514  1
  C  C23  1  0.49911240  0.49956876  0.10572875  1
  C  C24  1  0.00394406  0.99372841  0.30284276  1
  C  C25  1  0.99994714  0.49872399  0.20513813  1
  C  C26  1  0.49987452  0.00056894  0.20869589  1
  C  C27  1  0.50294408  0.50296151  0.30071292  1
  C  C28  1  -0.00255479  -0.00195070  0.48431112  1
  C  C29  1  1.00299191  0.49503394  0.39131341  1
  C  C30  1  0.49465531  0.00076856  0.39334633  1
  C  C31  1  0.49977912  0.50015046  0.49703705  1
  C  C32  1  -0.00003143  -0.00040438  0.69617269  1
  C  C33  1  -0.00002483  0.49916806  0.58959057  1
  C  C34  1  0.49919389  0.99988133  0.58943092  1
  C  C35  1  0.49999125  0.49977621  0.69613248  1
  C  C36  1  0.99969236  -0.00032556  0.90566095  1
  C  C37  1  0.99985616  0.49995390  0.80386507  1
  C  C38  1  0.50012800  1.00002561  0.80305117  1
  C  C39  1  0.49929525  0.49978787  0.90200301  1
