# generated using pymatgen
data_HfTaTiCoNiC5
_symmetry_space_group_name_H-M   'P 1'
_cell_length_a   4.40919797
_cell_length_b   4.41659872
_cell_length_c   21.25197446
_cell_angle_alpha   89.98331814
_cell_angle_beta   90.02093588
_cell_angle_gamma   89.92113580
_symmetry_Int_Tables_number   1
_chemical_formula_structural   HfTaTiCoNiC5
_chemical_formula_sum   'Hf4 Ta4 Ti4 Co4 Ni4 C20'
_cell_volume   413.85324803
_cell_formula_units_Z   4
loop_
 _symmetry_equiv_pos_site_id
 _symmetry_equiv_pos_as_xyz
  1  'x, y, z'
loop_
 _atom_site_type_symbol
 _atom_site_label
 _atom_site_symmetry_multiplicity
 _atom_site_fract_x
 _atom_site_fract_y
 _atom_site_fract_z
 _atom_site_occupancy
  Hf  Hf0  1  1.00442611  0.50598982  0.28684725  1
  Hf  Hf1  1  0.00057305  0.00280576  0.39113451  1
  Hf  Hf2  1  0.00080374  -0.00006026  0.59802309  1
  Hf  Hf3  1  0.50127762  0.50027205  0.59595910  1
  Ta  Ta4  1  0.49898019  0.00121589  0.70495953  1
  Ta  Ta5  1  -0.00249535  0.50120490  0.91193470  1
  Ta  Ta6  1  0.49569403  0.00044242  0.91991521  1
  Ta  Ta7  1  0.49901270  0.50051456  0.80508930  1
  Ti  Ti8  1  1.03272818  0.53331381  0.09945076  1
  Ti  Ti9  1  0.50061759  1.00249727  0.49100647  1
  Ti  Ti10  1  0.50211490  0.50274340  0.39182735  1
  Ti  Ti11  1  -0.00191778  -0.00054514  0.80551861  1
  Co  Co12  1  0.53539807  1.03321935  0.10227421  1
  Co  Co13  1  0.02560204  0.02215324  0.19213164  1
  Co  Co14  1  0.51609316  0.42607540  0.19472915  1
  Co  Co15  1  1.01211918  0.48613189  0.70384096  1
  Ni  Ni16  1  0.99054067  1.02552513  1.01279728  1
  Ni  Ni17  1  0.51351937  0.49622553  1.01421970  1
  Ni  Ni18  1  0.49697126  0.99788541  0.28559165  1
  Ni  Ni19  1  1.00511702  0.50270605  0.49332713  1
  C  C20  1  -0.01500332  0.00690668  0.10479003  1
  C  C21  1  0.99880037  0.49883858  0.00719634  1
  C  C22  1  0.50203426  0.00627279  0.01780810  1
  C  C23  1  0.51026458  0.48948041  0.10630751  1
  C  C24  1  0.00352763  0.99713619  0.28084533  1
  C  C25  1  0.93702575  0.43207819  0.18881465  1
  C  C26  1  0.44890536  1.01080078  0.19202522  1
  C  C27  1  0.50210328  0.49371905  0.28546029  1
  C  C28  1  1.00138564  0.00089926  0.49480759  1
  C  C29  1  1.00094798  0.50172808  0.39529455  1
  C  C30  1  0.50104962  1.00087443  0.38739901  1
  C  C31  1  0.49864214  0.50127213  0.49006717  1
  C  C32  1  0.99943395  0.01553287  0.70713370  1
  C  C33  1  1.00115099  0.49979969  0.60418987  1
  C  C34  1  0.50143018  0.99992314  0.59884181  1
  C  C35  1  0.48672690  0.50115852  0.70476900  1
  C  C36  1  -0.00226815  0.00241382  0.91162447  1
  C  C37  1  -0.00098685  0.50116267  0.80140467  1
  C  C38  1  0.50016536  0.00019817  0.80896093  1
  C  C39  1  0.49743414  0.50217079  0.91242417  1
