# generated using pymatgen
data_HfScTaTiCoC5
_symmetry_space_group_name_H-M   'P 1'
_cell_length_a   4.47671194
_cell_length_b   4.47389654
_cell_length_c   22.10063592
_cell_angle_alpha   90.08042124
_cell_angle_beta   90.01051769
_cell_angle_gamma   89.99545779
_symmetry_Int_Tables_number   1
_chemical_formula_structural   HfScTaTiCoC5
_chemical_formula_sum   'Hf4 Sc4 Ta4 Ti4 Co4 C20'
_cell_volume   442.63873948
_cell_formula_units_Z   4
loop_
 _symmetry_equiv_pos_site_id
 _symmetry_equiv_pos_as_xyz
  1  'x, y, z'
loop_
 _atom_site_type_symbol
 _atom_site_label
 _atom_site_symmetry_multiplicity
 _atom_site_fract_x
 _atom_site_fract_y
 _atom_site_fract_z
 _atom_site_occupancy
  Hf  Hf0  1  -0.00263589  -0.00167564  0.99613947  1
  Hf  Hf1  1  -0.00014869  0.50096803  0.10432215  1
  Hf  Hf2  1  0.49771951  0.49607204  -0.00537007  1
  Hf  Hf3  1  0.49881330  0.49611415  0.40366203  1
  Sc  Sc4  1  0.49656004  -0.00526169  0.50118739  1
  Sc  Sc5  1  -0.00494435  0.99946215  0.59996661  1
  Sc  Sc6  1  -0.00275264  0.50925130  0.70136922  1
  Sc  Sc7  1  0.49494813  -0.00864368  0.89313129  1
  Ta  Ta8  1  0.49994959  0.99954358  0.10515411  1
  Ta  Ta9  1  0.99987801  0.50223179  0.29998679  1
  Ta  Ta10  1  0.49884239  0.49868022  0.20415070  1
  Ta  Ta11  1  0.49605920  0.49873282  0.60188084  1
  Ti  Ti12  1  0.49916083  -0.00130048  0.29986802  1
  Ti  Ti13  1  0.99834290  0.99965084  0.40031022  1
  Ti  Ti14  1  0.99587637  0.99988150  0.79798105  1
  Ti  Ti15  1  0.49729354  0.49922683  0.79765070  1
  Co  Co16  1  0.02020287  0.00641734  0.20446458  1
  Co  Co17  1  0.96719349  0.45968732  0.50057039  1
  Co  Co18  1  0.45990802  0.04023575  0.70093410  1
  Co  Co19  1  0.96410181  0.45782991  0.89461207  1
  C  C20  1  0.00047524  1.00092005  0.10736447  1
  C  C21  1  0.99894314  0.49972655  -0.00880306  1
  C  C22  1  0.49638210  0.99567998  1.00295918  1
  C  C23  1  0.50080040  0.49956826  0.10248618  1
  C  C24  1  -0.00009914  1.00275435  0.29713906  1
  C  C25  1  0.00106196  0.49344209  0.20423793  1
  C  C26  1  0.48661472  -0.00125434  0.20312520  1
  C  C27  1  0.50121043  0.50101367  0.30050861  1
  C  C28  1  0.00031626  0.05542163  0.49322174  1
  C  C29  1  0.99962151  0.50621292  0.40490451  1
  C  C30  1  0.49670050  -0.00316010  0.39572440  1
  C  C31  1  0.54570363  0.49679134  0.50477547  1
  C  C32  1  1.05296175  0.00703192  0.70437451  1
  C  C33  1  -0.00056462  0.50039845  0.59132169  1
  C  C34  1  0.49586267  -0.00610178  0.61054661  1
  C  C35  1  0.50305624  0.45965565  0.70103768  1
  C  C36  1  0.99871233  0.04937706  0.89456356  1
  C  C37  1  0.00287641  0.50575911  0.80707032  1
  C  C38  1  0.50368526  -0.00483112  0.78860518  1
  C  C39  1  0.54293806  0.49416631  0.89298559  1
