# generated using pymatgen
data_HfTaTiCrCoC5
_symmetry_space_group_name_H-M   'P 1'
_cell_length_a   4.36555811
_cell_length_b   4.39011041
_cell_length_c   21.56846512
_cell_angle_alpha   90.02440802
_cell_angle_beta   89.96366207
_cell_angle_gamma   89.97291170
_symmetry_Int_Tables_number   1
_chemical_formula_structural   HfTaTiCrCoC5
_chemical_formula_sum   'Hf4 Ta4 Ti4 Cr4 Co4 C20'
_cell_volume   413.36555123
_cell_formula_units_Z   4
loop_
 _symmetry_equiv_pos_site_id
 _symmetry_equiv_pos_as_xyz
  1  'x, y, z'
loop_
 _atom_site_type_symbol
 _atom_site_label
 _atom_site_symmetry_multiplicity
 _atom_site_fract_x
 _atom_site_fract_y
 _atom_site_fract_z
 _atom_site_occupancy
  Hf  Hf0  1  0.50215213  0.49553588  0.20322055  1
  Hf  Hf1  1  0.49891205  1.00543388  0.49736689  1
  Hf  Hf2  1  0.00930418  0.49789961  0.69452815  1
  Hf  Hf3  1  -0.00598738  0.50069573  0.90431001  1
  Ta  Ta4  1  0.50874573  -0.00726139  0.30508066  1
  Ta  Ta5  1  -0.00293015  -0.00127557  0.59672677  1
  Ta  Ta6  1  -0.00216333  1.00093649  0.79752603  1
  Ta  Ta7  1  0.49658066  -0.00208668  0.90472823  1
  Ti  Ti8  1  0.00192285  0.49784164  0.10058831  1
  Ti  Ti9  1  0.50549494  -0.00495804  0.09793145  1
  Ti  Ti10  1  1.00268771  0.99501630  0.20390578  1
  Ti  Ti11  1  -0.00579879  0.50641945  0.49013031  1
  Cr  Cr12  1  1.02443232  0.02217780  1.00788486  1
  Cr  Cr13  1  0.47755614  0.46725339  0.00583474  1
  Cr  Cr14  1  0.47026997  0.49064764  0.39888279  1
  Cr  Cr15  1  0.50252560  0.98508161  0.69811029  1
  Co  Co16  1  -0.00343410  0.50135985  0.30614860  1
  Co  Co17  1  1.03375940  0.04977476  0.39595593  1
  Co  Co18  1  0.51359303  0.52296843  0.59883872  1
  Co  Co19  1  0.52171565  0.53931590  0.78424609  1
  C  C20  1  0.00367372  0.99592857  0.09995866  1
  C  C21  1  0.01038801  0.48341725  0.00702833  1
  C  C22  1  0.49295018  0.00329777  0.00286250  1
  C  C23  1  0.50461328  0.49612652  0.09703750  1
  C  C24  1  1.00364275  -0.00728196  0.30527786  1
  C  C25  1  1.00229049  0.49597515  0.20813777  1
  C  C26  1  0.50135463  -0.00362817  0.20032549  1
  C  C27  1  0.50911419  0.49804502  0.30855039  1
  C  C28  1  -0.00263085  1.00538051  0.49082882  1
  C  C29  1  0.00057983  0.47205391  0.39228198  1
  C  C30  1  0.46361658  0.00823264  0.39918701  1
  C  C31  1  0.49692473  0.50650629  0.49614640  1
  C  C32  1  0.00672326  1.00145538  0.69743981  1
  C  C33  1  0.98751380  0.49951621  0.59097932  1
  C  C34  1  0.49764503  -0.01212453  0.60614227  1
  C  C35  1  0.50709896  0.51955002  0.69638346  1
  C  C36  1  0.99700331  1.00006641  0.90546181  1
  C  C37  1  0.97802008  0.49890795  0.79880913  1
  C  C38  1  0.49570296  -0.02189757  0.79439063  1
  C  C39  1  0.49586738  0.49873727  0.91139062  1
