# generated using pymatgen
data_HfMgTaTiCrC5
_symmetry_space_group_name_H-M   'P 1'
_cell_length_a   4.42837534
_cell_length_b   4.42435035
_cell_length_c   22.25733925
_cell_angle_alpha   89.99106097
_cell_angle_beta   90.02068654
_cell_angle_gamma   90.00389463
_symmetry_Int_Tables_number   1
_chemical_formula_structural   HfMgTaTiCrC5
_chemical_formula_sum   'Hf4 Mg4 Ta4 Ti4 Cr4 C20'
_cell_volume   436.08098017
_cell_formula_units_Z   4
loop_
 _symmetry_equiv_pos_site_id
 _symmetry_equiv_pos_as_xyz
  1  'x, y, z'
loop_
 _atom_site_type_symbol
 _atom_site_label
 _atom_site_symmetry_multiplicity
 _atom_site_fract_x
 _atom_site_fract_y
 _atom_site_fract_z
 _atom_site_occupancy
  Hf  Hf0  1  1.00537283  1.00252683  0.20627857  1
  Hf  Hf1  1  0.99936336  0.49980827  0.49566021  1
  Hf  Hf2  1  0.49846303  0.49976136  0.59568876  1
  Hf  Hf3  1  0.50045302  0.50084343  0.80542096  1
  Mg  Mg4  1  0.49989649  0.50029394  0.99971221  1
  Mg  Mg5  1  0.49682914  0.49958588  0.20270580  1
  Mg  Mg6  1  0.00024977  0.50340857  0.90482874  1
  Mg  Mg7  1  0.50048827  0.99995026  0.90546139  1
  Ta  Ta8  1  0.99985382  0.50070011  0.10225049  1
  Ta  Ta9  1  0.49584925  0.49856999  0.39270724  1
  Ta  Ta10  1  -0.00029948  0.49864967  0.69886170  1
  Ta  Ta11  1  0.49993649  -0.00063680  0.69856358  1
  Ti  Ti12  1  0.00087433  1.00138726  1.00149989  1
  Ti  Ti13  1  0.50069395  1.00027175  0.10079641  1
  Ti  Ti14  1  1.00142017  1.00072060  0.39400768  1
  Ti  Ti15  1  0.49921735  0.99974997  0.49599200  1
  Cr  Cr16  1  -0.04404195  0.51812381  0.29840255  1
  Cr  Cr17  1  0.53454135  -0.01133679  0.29928676  1
  Cr  Cr18  1  0.99173648  0.00593245  0.59562720  1
  Cr  Cr19  1  0.99922721  0.01172985  0.81216257  1
  C  C20  1  0.00054814  1.00063302  0.10201294  1
  C  C21  1  0.00011722  0.50146065  1.00682682  1
  C  C22  1  0.50011232  1.00043469  1.00958306  1
  C  C23  1  0.50000295  0.50053468  0.10463546  1
  C  C24  1  0.98543570  0.98962838  0.30421385  1
  C  C25  1  0.99944514  0.50181250  0.20837652  1
  C  C26  1  0.50406027  1.00042630  0.21040194  1
  C  C27  1  0.52580484  0.50375465  0.29987245  1
  C  C28  1  -0.00064115  -0.00052503  0.50083021  1
  C  C29  1  -0.00077989  0.49847632  0.39127579  1
  C  C30  1  0.49705261  -0.00051073  0.39466503  1
  C  C31  1  0.49996184  0.50089184  0.49310648  1
  C  C32  1  0.99979821  0.99759830  0.68961191  1
  C  C33  1  -0.00101649  0.48827403  0.59813745  1
  C  C34  1  0.50881854  -0.00093489  0.59485366  1
  C  C35  1  0.49929720  0.50042853  0.69778831  1
  C  C36  1  1.00048238  1.00233178  0.89310953  1
  C  C37  1  1.00046667  0.48633123  0.79676931  1
  C  C38  1  0.50211582  -0.00003251  0.79639038  1
  C  C39  1  0.50016584  0.49976910  0.90148158  1
