# generated using pymatgen
data_HfTaTiCrMoC5
_symmetry_space_group_name_H-M   'P 1'
_cell_length_a   4.41291934
_cell_length_b   4.41401451
_cell_length_c   21.98373661
_cell_angle_alpha   90.01743237
_cell_angle_beta   89.97330310
_cell_angle_gamma   90.00586936
_symmetry_Int_Tables_number   1
_chemical_formula_structural   HfTaTiCrMoC5
_chemical_formula_sum   'Hf4 Ta4 Ti4 Cr4 Mo4 C20'
_cell_volume   428.21432257
_cell_formula_units_Z   4
loop_
 _symmetry_equiv_pos_site_id
 _symmetry_equiv_pos_as_xyz
  1  'x, y, z'
loop_
 _atom_site_type_symbol
 _atom_site_label
 _atom_site_symmetry_multiplicity
 _atom_site_fract_x
 _atom_site_fract_y
 _atom_site_fract_z
 _atom_site_occupancy
  Hf  Hf0  1  0.50004415  1.00020986  0.49866154  1
  Hf  Hf1  1  0.00055927  0.50134846  0.89989850  1
  Hf  Hf2  1  0.50007535  0.00244656  0.90200193  1
  Hf  Hf3  1  0.50371458  0.49988183  0.79645418  1
  Ta  Ta4  1  -0.00381674  0.49801147  0.09862438  1
  Ta  Ta5  1  0.99876507  0.99915867  0.20389691  1
  Ta  Ta6  1  0.50503182  0.49852420  0.39425945  1
  Ta  Ta7  1  0.50219557  0.00079853  0.69780185  1
  Ti  Ti8  1  0.49935684  1.00082700  0.10079092  1
  Ti  Ti9  1  0.50224325  0.49667811  0.20265274  1
  Ti  Ti10  1  0.99975836  0.00169195  0.39646305  1
  Ti  Ti11  1  -0.00111641  0.49906789  0.50065148  1
  Cr  Cr12  1  -0.00392356  0.00580834  0.00326185  1
  Cr  Cr13  1  0.48278580  0.98461536  0.29856252  1
  Cr  Cr14  1  -0.00131022  0.49686976  0.69867199  1
  Cr  Cr15  1  0.01169127  0.99253911  0.78885290  1
  Mo  Mo16  1  0.48426475  0.52356062  1.00598620  1
  Mo  Mo17  1  0.02470954  0.52428002  0.30075102  1
  Mo  Mo18  1  0.98987721  -0.01293640  0.60445516  1
  Mo  Mo19  1  0.46688769  0.50600618  0.60126007  1
  C  C20  1  0.99934888  0.99816340  0.09854489  1
  C  C21  1  0.00506317  0.48424683  0.00294409  1
  C  C22  1  0.51095367  0.99159225  1.00618546  1
  C  C23  1  0.49755938  0.49779452  0.10273700  1
  C  C24  1  0.00412685  0.99904507  0.30084960  1
  C  C25  1  0.99815507  0.49763754  0.20168446  1
  C  C26  1  0.49809112  -0.00271264  0.20497634  1
  C  C27  1  0.50011080  0.50229533  0.29770299  1
  C  C28  1  0.00124508  0.00036695  0.49976751  1
  C  C29  1  0.00258335  0.49902194  0.39952282  1
  C  C30  1  0.50179565  -0.00138716  0.39172659  1
  C  C31  1  0.50172976  0.50007069  0.49902465  1
  C  C32  1  1.00153741  0.00427825  0.70105615  1
  C  C33  1  0.00022816  0.50446918  0.60525538  1
  C  C34  1  0.50907178  -0.00078731  0.59981153  1
  C  C35  1  0.51036692  0.49968389  0.69474046  1
  C  C36  1  1.00093184  0.00047756  0.90796954  1
  C  C37  1  1.00313816  0.50788555  0.79106538  1
  C  C38  1  0.49185930  -0.00017513  0.79701082  1
  C  C39  1  0.50168754  0.50161449  0.90362088  1
