# generated using pymatgen
data_HfTaTiCrNiC5
_symmetry_space_group_name_H-M   'P 1'
_cell_length_a   4.38824244
_cell_length_b   4.38571489
_cell_length_c   21.55995117
_cell_angle_alpha   90.06196557
_cell_angle_beta   90.02500019
_cell_angle_gamma   90.04317999
_symmetry_Int_Tables_number   1
_chemical_formula_structural   HfTaTiCrNiC5
_chemical_formula_sum   'Hf4 Ta4 Ti4 Cr4 Ni4 C20'
_cell_volume   414.93336895
_cell_formula_units_Z   4
loop_
 _symmetry_equiv_pos_site_id
 _symmetry_equiv_pos_as_xyz
  1  'x, y, z'
loop_
 _atom_site_type_symbol
 _atom_site_label
 _atom_site_symmetry_multiplicity
 _atom_site_fract_x
 _atom_site_fract_y
 _atom_site_fract_z
 _atom_site_occupancy
  Hf  Hf0  1  0.00041350  1.00011805  0.19172918  1
  Hf  Hf1  1  0.00112130  0.50060554  0.30309231  1
  Hf  Hf2  1  0.00449308  0.50377822  0.51426194  1
  Hf  Hf3  1  -0.00156238  0.49188862  0.89126664  1
  Ta  Ta4  1  0.49964819  -0.00143227  0.08585306  1
  Ta  Ta5  1  0.50079531  0.00044206  0.30574299  1
  Ta  Ta6  1  0.50056965  0.50018171  0.19125081  1
  Ta  Ta7  1  0.50227565  0.50145312  0.41384764  1
  Ti  Ti8  1  -0.00133076  -0.00535526  0.98990677  1
  Ti  Ti9  1  0.49905462  0.49553233  -0.01004264  1
  Ti  Ti10  1  1.00217642  0.00230289  0.41404447  1
  Ti  Ti11  1  1.01606816  0.48955481  0.70247613  1
  Cr  Cr12  1  0.95418013  0.00805924  0.61043963  1
  Cr  Cr13  1  0.52146518  0.46736309  0.61166716  1
  Cr  Cr14  1  0.02637082  -0.02613856  0.79314828  1
  Cr  Cr15  1  0.50745090  0.56022630  0.79358683  1
  Ni  Ni16  1  0.00075677  0.49930679  0.09129906  1
  Ni  Ni17  1  0.49858746  0.00101985  0.52025324  1
  Ni  Ni18  1  0.49459647  0.00615977  0.70247784  1
  Ni  Ni19  1  0.49811089  -0.00251732  0.88825267  1
  C  C20  1  -0.00038038  0.99879013  0.08869465  1
  C  C21  1  -0.00114160  0.49587387  0.99695892  1
  C  C22  1  0.49903874  -0.00284813  0.98583520  1
  C  C23  1  0.49986832  0.49857674  0.09122084  1
  C  C24  1  1.00096319  0.00084311  0.30543906  1
  C  C25  1  1.00053479  0.50005350  0.19257503  1
  C  C26  1  0.50048444  0.00006789  0.19718425  1
  C  C27  1  0.50105625  0.50038317  0.30227971  1
  C  C28  1  0.99715113  1.00218673  0.51524379  1
  C  C29  1  1.00166002  0.50208019  0.40835552  1
  C  C30  1  0.50184441  0.00196541  0.40937109  1
  C  C31  1  0.50141672  0.49839522  0.51555611  1
  C  C32  1  0.00452772  0.99629719  0.70149233  1
  C  C33  1  -0.01598429  0.49442369  0.61111333  1
  C  C34  1  0.50574931  1.00848408  0.60927667  1
  C  C35  1  0.50529179  0.50016606  0.70248960  1
  C  C36  1  1.00015878  -0.00511312  0.88712744  1
  C  C37  1  0.99124251  0.51386860  0.79364580  1
  C  C38  1  0.48373713  0.99812801  0.79397696  1
  C  C39  1  0.50000518  0.50344480  0.88734085  1
