# generated using pymatgen
data_HfTaTiMnCrC5
_symmetry_space_group_name_H-M   'P 1'
_cell_length_a   4.42036846
_cell_length_b   4.40694917
_cell_length_c   21.62514372
_cell_angle_alpha   89.71830536
_cell_angle_beta   90.26616555
_cell_angle_gamma   90.10805925
_symmetry_Int_Tables_number   1
_chemical_formula_structural   HfTaTiMnCrC5
_chemical_formula_sum   'Hf4 Ta4 Ti4 Mn4 Cr4 C20'
_cell_volume   421.25476519
_cell_formula_units_Z   4
loop_
 _symmetry_equiv_pos_site_id
 _symmetry_equiv_pos_as_xyz
  1  'x, y, z'
loop_
 _atom_site_type_symbol
 _atom_site_label
 _atom_site_symmetry_multiplicity
 _atom_site_fract_x
 _atom_site_fract_y
 _atom_site_fract_z
 _atom_site_occupancy
  Hf  Hf0  1  0.49990491  0.50935365  0.00340285  1
  Hf  Hf1  1  0.50503824  -0.00129865  0.48874640  1
  Hf  Hf2  1  0.49290581  1.00246887  0.70124546  1
  Hf  Hf3  1  0.50028650  0.49594022  0.59381673  1
  Ta  Ta4  1  0.99768098  0.49986082  0.30067466  1
  Ta  Ta5  1  0.49878421  0.49489303  0.20017917  1
  Ta  Ta6  1  0.99603530  0.50662565  0.70241604  1
  Ta  Ta7  1  0.49803673  0.50416314  0.80810869  1
  Ti  Ti8  1  0.00374583  0.00438363  0.00356440  1
  Ti  Ti9  1  0.50712038  -0.00114483  0.10244180  1
  Ti  Ti10  1  0.99976975  0.49558060  0.49049076  1
  Ti  Ti11  1  0.00180553  1.00017881  0.81011471  1
  Mn  Mn12  1  0.04254489  -0.04156206  0.19195142  1
  Mn  Mn13  1  0.54446468  1.03794694  0.30266537  1
  Mn  Mn14  1  0.03155128  0.96303846  0.58580881  1
  Mn  Mn15  1  0.54848324  1.04328384  0.90601602  1
  Cr  Cr16  1  0.99506152  0.48736438  0.10249740  1
  Cr  Cr17  1  0.02229416  0.97463608  0.39115344  1
  Cr  Cr18  1  0.46880334  0.51951285  0.39366055  1
  Cr  Cr19  1  -0.01692113  0.47084167  0.90503226  1
  C  C20  1  0.00360032  1.01257269  0.10651146  1
  C  C21  1  1.00162136  0.50516660  0.00502194  1
  C  C22  1  0.50100886  1.00499097  1.00071652  1
  C  C23  1  0.51379419  0.49743378  0.10401953  1
  C  C24  1  -0.03500126  0.99979313  0.29888538  1
  C  C25  1  0.99986610  0.52098255  0.19626973  1
  C  C26  1  0.46489310  0.99563834  0.20633336  1
  C  C27  1  0.49707608  0.47724590  0.30211609  1
  C  C28  1  0.00192432  -0.00085959  0.49598280  1
  C  C29  1  1.00748762  0.50971364  0.39698293  1
  C  C30  1  0.47736135  0.98084984  0.38692810  1
  C  C31  1  0.50210742  0.49659765  0.48695814  1
  C  C32  1  0.99230608  1.00770322  0.70459741  1
  C  C33  1  0.99597653  0.53547408  0.59622004  1
  C  C34  1  0.46277840  1.00038949  0.59544506  1
  C  C35  1  0.49772497  0.50147510  0.70219146  1
  C  C36  1  0.96861900  0.01079566  0.90657657  1
  C  C37  1  0.99975823  0.50451565  0.80884028  1
  C  C38  1  0.49666971  -0.00031914  0.81154279  1
  C  C39  1  0.50853044  0.46989986  0.90381800  1
