# generated using pymatgen
data_HfTaTiVCrC5
_symmetry_space_group_name_H-M   'P 1'
_cell_length_a   4.36754701
_cell_length_b   4.36662829
_cell_length_c   21.70502345
_cell_angle_alpha   89.97555632
_cell_angle_beta   89.99362721
_cell_angle_gamma   90.00505583
_symmetry_Int_Tables_number   1
_chemical_formula_structural   HfTaTiVCrC5
_chemical_formula_sum   'Hf4 Ta4 Ti4 V4 Cr4 C20'
_cell_volume   413.94632233
_cell_formula_units_Z   4
loop_
 _symmetry_equiv_pos_site_id
 _symmetry_equiv_pos_as_xyz
  1  'x, y, z'
loop_
 _atom_site_type_symbol
 _atom_site_label
 _atom_site_symmetry_multiplicity
 _atom_site_fract_x
 _atom_site_fract_y
 _atom_site_fract_z
 _atom_site_occupancy
  Hf  Hf0  1  0.99741491  -0.00095372  0.99664795  1
  Hf  Hf1  1  0.99663637  0.00038567  0.40003201  1
  Hf  Hf2  1  0.50018538  0.49963856  0.60086787  1
  Hf  Hf3  1  0.49859972  0.50034072  0.80709096  1
  Ta  Ta4  1  1.00113913  0.99997858  0.19469855  1
  Ta  Ta5  1  0.50081058  1.00039052  0.29908736  1
  Ta  Ta6  1  0.50115228  0.50017969  0.19312705  1
  Ta  Ta7  1  0.49827399  1.00031998  0.49914195  1
  Ti  Ti8  1  -0.00003246  0.99932594  0.60517866  1
  Ti  Ti9  1  0.99988364  0.49757921  0.70625414  1
  Ti  Ti10  1  0.49978072  -0.00096861  0.70577510  1
  Ti  Ti11  1  0.50016873  -0.00126125  0.90121872  1
  V  V12  1  1.01715886  0.49500956  0.09334151  1
  V  V13  1  0.49181747  0.01623899  0.09417530  1
  V  V14  1  0.49343950  0.49841026  0.00002026  1
  V  V15  1  0.99798897  0.49923046  0.49814542  1
  Cr  Cr16  1  0.01779548  0.50037642  0.30351871  1
  Cr  Cr17  1  0.48444867  0.50071660  0.39715335  1
  Cr  Cr18  1  -0.00070273  0.00605899  0.80313705  1
  Cr  Cr19  1  -0.01345142  0.51263660  0.90111497  1
  C  C20  1  0.00096574  1.00233606  0.09793951  1
  C  C21  1  1.00265045  0.49932320  0.99667472  1
  C  C22  1  0.49814753  0.99956505  1.00106120  1
  C  C23  1  0.49534031  0.49586511  0.09387129  1
  C  C24  1  0.00132476  0.00100011  0.29672747  1
  C  C25  1  1.00184441  0.50097017  0.19769258  1
  C  C26  1  0.50250888  0.99960041  0.19378422  1
  C  C27  1  0.49549483  0.50032859  0.30199970  1
  C  C28  1  -0.00231480  1.00052046  0.50431303  1
  C  C29  1  1.01233695  0.50041178  0.39665538  1
  C  C30  1  0.49776463  1.00033952  0.39835204  1
  C  C31  1  0.49920648  0.50003771  0.49179145  1
  C  C32  1  1.00012375  -0.00193038  0.70897278  1
  C  C33  1  0.00024456  0.49946798  0.59996628  1
  C  C34  1  0.49955889  -0.00036809  0.60338426  1
  C  C35  1  0.50012612  0.49973031  0.70338851  1
  C  C36  1  0.00108906  0.98721867  0.89304201  1
  C  C37  1  -0.00101093  0.49154886  0.80749105  1
  C  C38  1  0.49972173  0.00049485  0.80341080  1
  C  C39  1  0.51119323  0.49795288  0.90948116  1
