# generated using pymatgen
data_HfScTaTiCrC5
_symmetry_space_group_name_H-M   'P 1'
_cell_length_a   4.46725315
_cell_length_b   4.47022377
_cell_length_c   22.21740007
_cell_angle_alpha   90.00233773
_cell_angle_beta   90.01202655
_cell_angle_gamma   90.00922372
_symmetry_Int_Tables_number   1
_chemical_formula_structural   HfScTaTiCrC5
_chemical_formula_sum   'Hf4 Sc4 Ta4 Ti4 Cr4 C20'
_cell_volume   443.67304789
_cell_formula_units_Z   4
loop_
 _symmetry_equiv_pos_site_id
 _symmetry_equiv_pos_as_xyz
  1  'x, y, z'
loop_
 _atom_site_type_symbol
 _atom_site_label
 _atom_site_symmetry_multiplicity
 _atom_site_fract_x
 _atom_site_fract_y
 _atom_site_fract_z
 _atom_site_occupancy
  Hf  Hf0  1  1.00026497  0.50036969  0.29514764  1
  Hf  Hf1  1  0.50054840  0.50011705  0.40196795  1
  Hf  Hf2  1  -0.00288917  0.49517939  0.69754923  1
  Hf  Hf3  1  0.99993839  0.50217797  0.90279415  1
  Sc  Sc4  1  1.00028441  0.50344947  0.09713580  1
  Sc  Sc5  1  0.50029580  0.50093899  0.19311036  1
  Sc  Sc6  1  0.00037286  1.00004263  0.40132810  1
  Sc  Sc7  1  0.50177542  0.00339481  0.69874491  1
  Ta  Ta8  1  0.50028982  0.00058559  0.29229355  1
  Ta  Ta9  1  0.00035177  0.49888671  0.50793740  1
  Ta  Ta10  1  0.50110078  1.00144247  0.50693316  1
  Ta  Ta11  1  0.49961562  0.50088369  0.80123851  1
  Ti  Ti12  1  0.49991860  1.00041299  0.09600573  1
  Ti  Ti13  1  0.50067502  0.49478511  1.00054167  1
  Ti  Ti14  1  0.99973756  1.00010095  0.80197259  1
  Ti  Ti15  1  0.49864102  -0.00039932  0.90521125  1
  Cr  Cr16  1  -0.01898324  0.01526672  1.00108317  1
  Cr  Cr17  1  -0.00095686  0.01532989  0.19194105  1
  Cr  Cr18  1  0.02273910  0.96309368  0.60318268  1
  Cr  Cr19  1  0.47281436  0.54976415  0.60292027  1
  C  C20  1  -0.00067341  0.00283228  0.09899941  1
  C  C21  1  1.00111957  0.48011141  -0.00098932  1
  C  C22  1  0.51829376  -0.00238015  0.99958507  1
  C  C23  1  0.49965837  0.50364793  0.09200341  1
  C  C24  1  1.00021328  0.99960228  0.28836680  1
  C  C25  1  1.00022798  0.47704149  0.19680851  1
  C  C26  1  0.50187847  0.00092594  0.19423505  1
  C  C27  1  0.50023736  0.50125462  0.29961490  1
  C  C28  1  0.99946370  1.00084570  0.51015598  1
  C  C29  1  1.00080852  0.50003412  0.40465897  1
  C  C30  1  0.50019289  0.99949064  0.40046702  1
  C  C31  1  0.50168091  0.49952990  0.50934682  1
  C  C32  1  0.00134965  0.99690382  0.69645886  1
  C  C33  1  1.01342647  0.51302325  0.60092105  1
  C  C34  1  0.48874668  0.97369907  0.60027648  1
  C  C35  1  0.49806985  0.50220190  0.69627581  1
  C  C36  1  1.00060043  0.00102979  0.90684301  1
  C  C37  1  -0.00014303  0.49972418  0.80003857  1
  C  C38  1  0.50127981  0.00134805  0.80568035  1
  C  C39  1  0.49935020  0.50263452  0.90034158  1
