# generated using pymatgen
data_HfMgScTaTiC5
_symmetry_space_group_name_H-M   'P 1'
_cell_length_a   4.51947427
_cell_length_b   4.51396080
_cell_length_c   22.70355833
_cell_angle_alpha   89.99921928
_cell_angle_beta   89.99735904
_cell_angle_gamma   90.00092744
_symmetry_Int_Tables_number   1
_chemical_formula_structural   HfMgScTaTiC5
_chemical_formula_sum   'Hf4 Mg4 Sc4 Ta4 Ti4 C20'
_cell_volume   463.16915544
_cell_formula_units_Z   4
loop_
 _symmetry_equiv_pos_site_id
 _symmetry_equiv_pos_as_xyz
  1  'x, y, z'
loop_
 _atom_site_type_symbol
 _atom_site_label
 _atom_site_symmetry_multiplicity
 _atom_site_fract_x
 _atom_site_fract_y
 _atom_site_fract_z
 _atom_site_occupancy
  Hf  Hf0  1  -0.00001152  0.49989164  0.10001211  1
  Hf  Hf1  1  -0.00001972  0.50018154  0.50302143  1
  Hf  Hf2  1  -0.00035836  1.00032592  0.60715854  1
  Hf  Hf3  1  0.49977226  0.50018227  0.60672399  1
  Mg  Mg4  1  0.99998046  0.99927302  0.19883043  1
  Mg  Mg5  1  0.50001957  1.00029539  0.50314521  1
  Mg  Mg6  1  0.50062086  0.00094016  0.70394393  1
  Mg  Mg7  1  0.50061357  0.00163826  0.89376923  1
  Sc  Sc8  1  0.49993457  1.00004584  0.09761191  1
  Sc  Sc9  1  0.49997506  -0.00055866  0.29756364  1
  Sc  Sc10  1  0.50002812  0.49982540  0.19952018  1
  Sc  Sc11  1  0.99998237  0.99985198  0.40200432  1
  Ta  Ta12  1  0.00002645  -0.00016425  0.99412551  1
  Ta  Ta13  1  0.49992892  0.50061249  0.99388810  1
  Ta  Ta14  1  0.50000396  0.49971691  0.40097456  1
  Ta  Ta15  1  1.00005358  0.49991489  0.89419525  1
  Ti  Ti16  1  0.99994088  0.49332738  0.29622544  1
  Ti  Ti17  1  1.00085249  0.50148378  0.70692326  1
  Ti  Ti18  1  1.00400266  1.00085591  0.79769548  1
  Ti  Ti19  1  0.50094864  0.50315755  0.79724620  1
  C  C20  1  0.99977369  0.99990524  0.09071689  1
  C  C21  1  1.00024353  0.49972395  0.99376517  1
  C  C22  1  0.49978227  -0.00006221  -0.00644898  1
  C  C23  1  0.49995434  0.50001255  0.09152030  1
  C  C24  1  0.00002092  0.00787873  0.30012776  1
  C  C25  1  1.00003876  0.50002717  0.20373525  1
  C  C26  1  0.49993086  -0.00026610  0.19487179  1
  C  C27  1  0.50010655  0.50050044  0.30425103  1
  C  C28  1  -0.00018639  0.00009981  0.50791624  1
  C  C29  1  0.00008365  0.50005662  0.40025654  1
  C  C30  1  0.49997232  0.99948296  0.40153659  1
  C  C31  1  0.49995733  0.50011473  0.50031934  1
  C  C32  1  0.99934965  -0.00094808  0.70787118  1
  C  C33  1  0.99970913  0.49999728  0.60874573  1
  C  C34  1  0.49948866  0.00001398  0.60600568  1
  C  C35  1  0.49971032  0.49996048  0.70715949  1
  C  C36  1  0.99915566  0.99952648  0.89651382  1
  C  C37  1  0.99879209  0.49880664  0.80006343  1
  C  C38  1  0.49483061  -0.00351096  0.80006057  1
  C  C39  1  0.49964312  0.50023703  0.89667129  1
