# generated using pymatgen
data_HfMgTaTiNiC5
_symmetry_space_group_name_H-M   'P 1'
_cell_length_a   4.42640737
_cell_length_b   4.42583343
_cell_length_c   22.15954734
_cell_angle_alpha   90.00239512
_cell_angle_beta   90.00313449
_cell_angle_gamma   90.00134480
_symmetry_Int_Tables_number   1
_chemical_formula_structural   HfMgTaTiNiC5
_chemical_formula_sum   'Hf4 Mg4 Ta4 Ti4 Ni4 C20'
_cell_volume   434.11753572
_cell_formula_units_Z   4
loop_
 _symmetry_equiv_pos_site_id
 _symmetry_equiv_pos_as_xyz
  1  'x, y, z'
loop_
 _atom_site_type_symbol
 _atom_site_label
 _atom_site_symmetry_multiplicity
 _atom_site_fract_x
 _atom_site_fract_y
 _atom_site_fract_z
 _atom_site_occupancy
  Hf  Hf0  1  1.00046068  0.50007987  0.09390234  1
  Hf  Hf1  1  0.49985967  0.50010749  0.19943172  1
  Hf  Hf2  1  0.50030904  1.00474023  0.50271073  1
  Hf  Hf3  1  0.49934362  0.00626471  0.69981144  1
  Mg  Mg4  1  0.99988510  0.50127373  0.50076920  1
  Mg  Mg5  1  1.00130653  0.50502723  0.69896737  1
  Mg  Mg6  1  0.50088111  0.49871238  0.60150416  1
  Mg  Mg7  1  1.00255598  0.49820611  0.89687051  1
  Ta  Ta8  1  -0.00019809  0.99978533  0.99288895  1
  Ta  Ta9  1  -0.00028965  1.00008287  0.20165862  1
  Ta  Ta10  1  0.50007450  1.00232209  0.30674960  1
  Ta  Ta11  1  -0.00377802  0.00037968  0.79902587  1
  Ti  Ti12  1  0.50029251  -0.00004088  0.09185967  1
  Ti  Ti13  1  0.99907106  0.50161335  0.30794649  1
  Ti  Ti14  1  0.49909378  0.50362884  0.40434741  1
  Ti  Ti15  1  0.49849389  -0.00274216  0.89795635  1
  Ni  Ni16  1  0.50143548  0.49998928  0.99205849  1
  Ni  Ni17  1  1.00000625  0.00520571  0.40570444  1
  Ni  Ni18  1  0.99967792  0.01772095  0.60026759  1
  Ni  Ni19  1  0.50735167  0.50311928  0.80280798  1
  C  C20  1  0.00039544  0.00022352  0.09837558  1
  C  C21  1  -0.00051840  0.49988406  0.99553093  1
  C  C22  1  0.49993811  1.00079644  -0.00256155  1
  C  C23  1  0.50042627  0.50075340  0.09258738  1
  C  C24  1  1.00059251  1.00124796  0.30328921  1
  C  C25  1  0.99982181  0.50004888  0.20241082  1
  C  C26  1  0.49969433  0.00024916  0.19941933  1
  C  C27  1  0.50043844  0.50271937  0.30302772  1
  C  C28  1  1.00062374  0.00046372  0.50278667  1
  C  C29  1  0.99989880  0.49827444  0.39816998  1
  C  C30  1  0.50025603  0.00290564  0.40083596  1
  C  C31  1  0.49990076  0.50472303  0.49519727  1
  C  C32  1  -0.00019444  1.00310033  0.69632014  1
  C  C33  1  0.00136337  0.43555151  0.60069713  1
  C  C34  1  0.50699380  0.99526092  0.60168781  1
  C  C35  1  0.50075395  0.50585820  0.71439767  1
  C  C36  1  0.00126618  0.99946318  0.89778212  1
  C  C37  1  0.98111602  0.50082321  0.79894950  1
  C  C38  1  0.49628687  0.00023423  0.80392845  1
  C  C39  1  0.50126806  0.50168714  0.90029116  1
