# generated using pymatgen
data_HfMgTaTiMnC5
_symmetry_space_group_name_H-M   'P 1'
_cell_length_a   4.45950060
_cell_length_b   4.46847291
_cell_length_c   22.03887820
_cell_angle_alpha   90.27297650
_cell_angle_beta   90.23910466
_cell_angle_gamma   89.87289213
_symmetry_Int_Tables_number   1
_chemical_formula_structural   HfMgTaTiMnC5
_chemical_formula_sum   'Hf4 Mg4 Ta4 Ti4 Mn4 C20'
_cell_volume   439.16232989
_cell_formula_units_Z   4
loop_
 _symmetry_equiv_pos_site_id
 _symmetry_equiv_pos_as_xyz
  1  'x, y, z'
loop_
 _atom_site_type_symbol
 _atom_site_label
 _atom_site_symmetry_multiplicity
 _atom_site_fract_x
 _atom_site_fract_y
 _atom_site_fract_z
 _atom_site_occupancy
  Hf  Hf0  1  0.99247269  1.00530260  -0.00293608  1
  Hf  Hf1  1  1.00346608  0.51267131  0.09989385  1
  Hf  Hf2  1  0.99747192  0.49431138  0.49617598  1
  Hf  Hf3  1  0.49726765  -0.00685740  0.49484973  1
  Mg  Mg4  1  0.50011851  1.02269814  0.09957174  1
  Mg  Mg5  1  0.99190020  0.98717653  0.39726872  1
  Mg  Mg6  1  0.50301792  1.00013197  0.70363653  1
  Mg  Mg7  1  0.51157259  -0.01302110  0.89990747  1
  Ta  Ta8  1  -0.00568799  1.01091019  0.20121439  1
  Ta  Ta9  1  -0.00079173  0.00008049  0.60540859  1
  Ta  Ta10  1  0.49922140  0.49897339  0.60465844  1
  Ta  Ta11  1  0.51020411  0.49774574  0.80238661  1
  Ti  Ti12  1  0.00037123  0.49107182  0.30106534  1
  Ti  Ti13  1  0.49817301  0.48113953  0.39163124  1
  Ti  Ti14  1  1.00410329  0.50216206  0.70469245  1
  Ti  Ti15  1  0.00998743  -0.00293011  0.80071166  1
  Mn  Mn16  1  0.45566592  0.46833383  0.99077979  1
  Mn  Mn17  1  0.45296156  -0.06329248  0.30098148  1
  Mn  Mn18  1  0.53495413  0.56050095  0.19738075  1
  Mn  Mn19  1  0.04928838  0.45778704  0.89835595  1
  C  C20  1  1.00119957  1.01331774  0.10156124  1
  C  C21  1  1.02504851  0.50898507  0.99187776  1
  C  C22  1  0.49436963  0.05093609  -0.00121531  1
  C  C23  1  0.49886949  0.52204476  0.11153916  1
  C  C24  1  1.03307732  0.99931658  0.29758071  1
  C  C25  1  0.96256612  0.50245966  0.20279716  1
  C  C26  1  0.49594195  0.97833693  0.20863374  1
  C  C27  1  0.50038707  0.52029916  0.29618974  1
  C  C28  1  -0.00235823  -0.00496372  0.50231206  1
  C  C29  1  -0.00715263  0.48640035  0.39453403  1
  C  C30  1  0.49491186  -0.01385902  0.38816656  1
  C  C31  1  0.49763966  0.49336424  0.49773244  1
  C  C32  1  1.00361048  1.00075392  0.70307145  1
  C  C33  1  0.99925649  0.49991514  0.60489861  1
  C  C34  1  0.49953301  0.99903329  0.60044823  1
  C  C35  1  0.50163927  0.49908960  0.70260524  1
  C  C36  1  1.00452664  1.04132510  0.89526612  1
  C  C37  1  0.00876032  0.50098556  0.80624645  1
  C  C38  1  0.50982546  -0.00348811  0.80186698  1
  C  C39  1  0.47230244  0.50136214  0.90601643  1
