# generated using pymatgen
data_HfMgTaTiCoC5
_symmetry_space_group_name_H-M   'P 1'
_cell_length_a   4.45813322
_cell_length_b   4.46007457
_cell_length_c   21.88098414
_cell_angle_alpha   89.89256527
_cell_angle_beta   90.21601478
_cell_angle_gamma   90.08008479
_symmetry_Int_Tables_number   1
_chemical_formula_structural   HfMgTaTiCoC5
_chemical_formula_sum   'Hf4 Mg4 Ta4 Ti4 Co4 C20'
_cell_volume   435.06860333
_cell_formula_units_Z   4
loop_
 _symmetry_equiv_pos_site_id
 _symmetry_equiv_pos_as_xyz
  1  'x, y, z'
loop_
 _atom_site_type_symbol
 _atom_site_label
 _atom_site_symmetry_multiplicity
 _atom_site_fract_x
 _atom_site_fract_y
 _atom_site_fract_z
 _atom_site_occupancy
  Hf  Hf0  1  0.49559572  0.00240764  0.30197816  1
  Hf  Hf1  1  0.49355299  0.50610243  0.19101772  1
  Hf  Hf2  1  0.49869223  0.49975879  0.60986885  1
  Hf  Hf3  1  0.51338704  -0.01597742  0.89385927  1
  Mg  Mg4  1  -0.00381802  0.51935396  0.09034839  1
  Mg  Mg5  1  0.48192252  1.00212775  0.09159231  1
  Mg  Mg6  1  0.99848926  1.00027188  0.40619872  1
  Mg  Mg7  1  0.99949382  0.50088572  0.50744319  1
  Ta  Ta8  1  -0.00798266  1.00812801  0.19099289  1
  Ta  Ta9  1  0.50003355  1.00084032  0.50799132  1
  Ta  Ta10  1  0.49876102  0.50099669  0.40546533  1
  Ta  Ta11  1  1.00768666  0.48110610  0.89262778  1
  Ti  Ti12  1  0.50606277  0.49010868  0.99908901  1
  Ti  Ti13  1  -0.00395304  0.50083855  0.30148088  1
  Ti  Ti14  1  1.00372755  1.00710195  0.61345109  1
  Ti  Ti15  1  0.49121579  0.47693097  0.79427225  1
  Co  Co16  1  0.96613110  0.03185356  0.00651070  1
  Co  Co17  1  -0.02575311  0.53849027  0.70593152  1
  Co  Co18  1  0.54989260  0.96443658  0.70543619  1
  Co  Co19  1  0.04644830  0.95175608  0.79494179  1
  C  C20  1  -0.01440372  0.01597604  0.08903170  1
  C  C21  1  0.00943126  0.46718650  0.99031714  1
  C  C22  1  0.53881673  0.99152004  -0.00602036  1
  C  C23  1  0.49536052  0.50344856  0.09002671  1
  C  C24  1  -0.00461039  0.00506118  0.29534423  1
  C  C25  1  -0.00648873  0.50788594  0.19771122  1
  C  C26  1  0.49278030  0.00647771  0.19590073  1
  C  C27  1  0.49607879  0.50339619  0.30177144  1
  C  C28  1  0.99946725  0.00113416  0.51643146  1
  C  C29  1  0.99848914  0.50097991  0.39751716  1
  C  C30  1  0.49835053  0.00135044  0.40751393  1
  C  C31  1  0.49986750  0.50182067  0.50485020  1
  C  C32  1  0.96609774  0.99094738  0.71138455  1
  C  C33  1  1.00244824  0.50177503  0.61934419  1
  C  C34  1  0.50111932  1.00303901  0.61403464  1
  C  C35  1  0.54065829  0.54422638  0.70638611  1
  C  C36  1  0.00920164  -0.01326951  0.88486599  1
  C  C37  1  0.00267661  0.51753701  0.79127115  1
  C  C38  1  0.46057161  0.99795949  0.78851862  1
  C  C39  1  0.50801490  0.48517630  0.89410632  1
