# generated using pymatgen
data_HfTaTiMnCoC5
_symmetry_space_group_name_H-M   'P 1'
_cell_length_a   4.42847859
_cell_length_b   4.42528621
_cell_length_c   21.37779643
_cell_angle_alpha   89.76993068
_cell_angle_beta   90.18055938
_cell_angle_gamma   90.10497704
_symmetry_Int_Tables_number   1
_chemical_formula_structural   HfTaTiMnCoC5
_chemical_formula_sum   'Hf4 Ta4 Ti4 Mn4 Co4 C20'
_cell_volume   418.94062308
_cell_formula_units_Z   4
loop_
 _symmetry_equiv_pos_site_id
 _symmetry_equiv_pos_as_xyz
  1  'x, y, z'
loop_
 _atom_site_type_symbol
 _atom_site_label
 _atom_site_symmetry_multiplicity
 _atom_site_fract_x
 _atom_site_fract_y
 _atom_site_fract_z
 _atom_site_occupancy
  Hf  Hf0  1  -0.00373126  1.01189590  -0.01011006  1
  Hf  Hf1  1  0.50256100  1.01064071  0.09557043  1
  Hf  Hf2  1  0.99891009  0.49326664  0.29933456  1
  Hf  Hf3  1  0.49929093  -0.00530144  0.50717949  1
  Ta  Ta4  1  0.50164531  0.51651790  -0.00942346  1
  Ta  Ta5  1  0.49624331  0.50096176  0.19502355  1
  Ta  Ta6  1  0.00104609  0.49587344  0.50982028  1
  Ta  Ta7  1  0.50185292  0.96785811  0.70770989  1
  Ti  Ti8  1  0.50089494  -0.00318814  0.30000524  1
  Ti  Ti9  1  -0.00068789  -0.00376889  0.40291506  1
  Ti  Ti10  1  0.50015366  0.49955090  0.40232513  1
  Ti  Ti11  1  0.51281908  0.48415110  0.60981027  1
  Mn  Mn12  1  1.03139581  0.95447611  0.19301330  1
  Mn  Mn13  1  0.04793757  0.42759438  0.70169739  1
  Mn  Mn14  1  1.04927355  0.49092628  0.88660490  1
  Mn  Mn15  1  0.45807469  0.44699466  0.80197198  1
  Co  Co16  1  -0.00514726  0.52048041  0.09560779  1
  Co  Co17  1  -0.03512710  0.01587620  0.60965308  1
  Co  Co18  1  0.96145360  0.07460608  0.80176829  1
  Co  Co19  1  0.45108994  0.05900163  0.89251034  1
  C  C20  1  0.99829989  0.01260186  0.10295790  1
  C  C21  1  0.99844803  0.51326765  0.99525664  1
  C  C22  1  0.49808960  0.01418718  -0.01417689  1
  C  C23  1  0.49955836  0.50962369  0.09381746  1
  C  C24  1  0.99417455  -0.00389455  0.29573647  1
  C  C25  1  -0.00774999  0.53318253  0.19088540  1
  C  C26  1  0.46530455  0.00531296  0.20025393  1
  C  C27  1  0.49937335  0.49537949  0.30011600  1
  C  C28  1  0.00033596  0.99548527  0.51025794  1
  C  C29  1  0.99996054  0.49606566  0.40572176  1
  C  C30  1  0.49860146  0.99557955  0.39966370  1
  C  C31  1  0.49935593  0.49556426  0.50651591  1
  C  C32  1  0.00331533  0.00376320  0.70653401  1
  C  C33  1  1.00642807  0.47092777  0.61251102  1
  C  C34  1  0.54169042  -0.01607544  0.60926272  1
  C  C35  1  0.47879084  0.48074588  0.70828481  1
  C  C36  1  0.03292110  0.02881624  0.88611711  1
  C  C37  1  0.01087782  0.49144094  0.79922767  1
  C  C38  1  0.53482776  0.02362255  0.80682479  1
  C  C39  1  0.48017870  0.49940333  0.89084485  1
