# generated using pymatgen
data_HfScTaTiMnC5
_symmetry_space_group_name_H-M   'P 1'
_cell_length_a   4.48653270
_cell_length_b   4.49072581
_cell_length_c   22.29854758
_cell_angle_alpha   90.11180642
_cell_angle_beta   90.07990180
_cell_angle_gamma   90.01448536
_symmetry_Int_Tables_number   1
_chemical_formula_structural   HfScTaTiMnC5
_chemical_formula_sum   'Hf4 Sc4 Ta4 Ti4 Mn4 C20'
_cell_volume   449.26510627
_cell_formula_units_Z   4
loop_
 _symmetry_equiv_pos_site_id
 _symmetry_equiv_pos_as_xyz
  1  'x, y, z'
loop_
 _atom_site_type_symbol
 _atom_site_label
 _atom_site_symmetry_multiplicity
 _atom_site_fract_x
 _atom_site_fract_y
 _atom_site_fract_z
 _atom_site_occupancy
  Hf  Hf0  1  0.50510305  0.00566038  0.09492148  1
  Hf  Hf1  1  0.50096380  0.00908250  0.29942391  1
  Hf  Hf2  1  0.49236453  0.49779903  0.40060136  1
  Hf  Hf3  1  0.49594642  0.50048930  0.80128350  1
  Sc  Sc4  1  0.00299769  0.01268783  0.19853789  1
  Sc  Sc5  1  0.00183580  0.48796441  0.49973633  1
  Sc  Sc6  1  0.50570747  -0.00711435  0.50113316  1
  Sc  Sc7  1  1.00950818  -0.00307839  0.60315927  1
  Ta  Ta8  1  0.50644595  0.50851666  0.19575635  1
  Ta  Ta9  1  0.50423463  0.49958661  0.60424069  1
  Ta  Ta10  1  0.99634460  0.99797611  0.80152524  1
  Ta  Ta11  1  0.99558208  0.49737023  0.90478338  1
  Ti  Ti12  1  -0.00106269  0.99902427  0.99851027  1
  Ti  Ti13  1  0.49744900  0.49944704  0.99888434  1
  Ti  Ti14  1  0.99711560  0.49665818  0.70137614  1
  Ti  Ti15  1  0.49687897  -0.00110154  0.90233472  1
  Mn  Mn16  1  0.04301006  0.54221045  0.09954859  1
  Mn  Mn17  1  0.96528687  0.55778104  0.30672457  1
  Mn  Mn18  1  0.03418250  0.95524277  0.40220533  1
  Mn  Mn19  1  0.54725628  0.04427330  0.69921342  1
  C  C20  1  1.00103212  0.96075848  0.09303310  1
  C  C21  1  -0.00542547  0.49328576  0.00318619  1
  C  C22  1  0.49882283  0.00015272  -0.00465074  1
  C  C23  1  0.46679072  0.50076825  0.09594426  1
  C  C24  1  -0.00055198  0.97177859  0.30545943  1
  C  C25  1  0.00335128  0.50795034  0.18653147  1
  C  C26  1  0.50320543  0.01048860  0.19726221  1
  C  C27  1  0.53621708  0.50729316  0.29600044  1
  C  C28  1  1.00133990  0.98885161  0.48690619  1
  C  C29  1  0.99095229  0.52696208  0.39038098  1
  C  C30  1  0.45436141  1.00035173  0.39964828  1
  C  C31  1  0.50305698  0.49162964  0.50433714  1
  C  C32  1  0.96199766  0.99186571  0.70541522  1
  C  C33  1  0.00491503  0.49981033  0.60638276  1
  C  C34  1  0.50575141  0.99565394  0.61228085  1
  C  C35  1  0.49299992  0.46103807  0.70193465  1
  C  C36  1  -0.00493009  -0.00325320  0.90120253  1
  C  C37  1  -0.00258247  0.49972029  0.80254456  1
  C  C38  1  0.49369731  -0.00195584  0.79919892  1
  C  C39  1  0.49488512  0.49752547  0.90327636  1
