# generated using pymatgen
data_HfTaTiMnNiC5
_symmetry_space_group_name_H-M   'P 1'
_cell_length_a   4.42108630
_cell_length_b   4.43462615
_cell_length_c   21.53616275
_cell_angle_alpha   90.38487183
_cell_angle_beta   90.10836904
_cell_angle_gamma   90.10523312
_symmetry_Int_Tables_number   1
_chemical_formula_structural   HfTaTiMnNiC5
_chemical_formula_sum   'Hf4 Ta4 Ti4 Mn4 Ni4 C20'
_cell_volume   422.22409407
_cell_formula_units_Z   4
loop_
 _symmetry_equiv_pos_site_id
 _symmetry_equiv_pos_as_xyz
  1  'x, y, z'
loop_
 _atom_site_type_symbol
 _atom_site_label
 _atom_site_symmetry_multiplicity
 _atom_site_fract_x
 _atom_site_fract_y
 _atom_site_fract_z
 _atom_site_occupancy
  Hf  Hf0  1  0.49418180  0.49500638  0.99447306  1
  Hf  Hf1  1  -0.00668042  1.00057127  0.20297335  1
  Hf  Hf2  1  0.00541703  0.00441403  0.59696990  1
  Hf  Hf3  1  0.50613368  0.01015184  0.70544835  1
  Ta  Ta4  1  0.49373934  0.49831901  0.20450856  1
  Ta  Ta5  1  -0.00034285  0.50099007  0.49190734  1
  Ta  Ta6  1  0.50504158  0.50559720  0.59493794  1
  Ta  Ta7  1  0.01447110  0.01572425  0.80837579  1
  Ti  Ti8  1  -0.00920371  -0.00633377  -0.00141414  1
  Ti  Ti9  1  0.99740328  0.49252066  0.09833480  1
  Ti  Ti10  1  1.00326772  -0.00546380  0.39715787  1
  Ti  Ti11  1  0.00571927  0.51000996  0.70698458  1
  Mn  Mn12  1  0.45217375  0.03696873  0.09492637  1
  Mn  Mn13  1  -0.05213222  0.53864267  0.30435033  1
  Mn  Mn14  1  0.45935947  0.44029922  0.39619584  1
  Mn  Mn15  1  0.54562911  0.94751664  0.89715043  1
  Ni  Ni16  1  0.50746520  0.98023404  0.30332103  1
  Ni  Ni17  1  0.50814934  1.01380055  0.49499045  1
  Ni  Ni18  1  0.99609353  0.51522067  0.89882027  1
  Ni  Ni19  1  0.50037193  0.50614809  0.80179230  1
  C  C20  1  0.03359753  0.98803687  0.09787102  1
  C  C21  1  0.99465685  0.49652414  0.99814147  1
  C  C22  1  0.49621763  0.99430306  0.00437512  1
  C  C23  1  0.50248307  0.45804699  0.10282736  1
  C  C24  1  -0.00496367  -0.04441718  0.30328886  1
  C  C25  1  -0.00495884  0.49844711  0.20538566  1
  C  C26  1  0.49382023  0.99427753  0.20061277  1
  C  C27  1  0.53203707  0.49250288  0.30707346  1
  C  C28  1  -0.00486038  0.99670355  0.49400502  1
  C  C29  1  0.02858565  0.49244257  0.39264581  1
  C  C30  1  0.50137301  0.02796385  0.39808348  1
  C  C31  1  0.50212156  0.50096718  0.49102702  1
  C  C32  1  1.00475696  0.00750334  0.70449454  1
  C  C33  1  1.00569194  0.50444657  0.59838286  1
  C  C34  1  0.50481291  0.00646591  0.59446898  1
  C  C35  1  0.50528020  0.50987519  0.70241005  1
  C  C36  1  0.97006870  1.00389634  0.90443735  1
  C  C37  1  0.01135595  0.51104527  0.80412960  1
  C  C38  1  0.50667325  0.02329075  0.81147897  1
  C  C39  1  0.49831139  0.53679354  0.89252138  1
