# generated using pymatgen
data_HfMgTaTiMoC5
_symmetry_space_group_name_H-M   'P 1'
_cell_length_a   4.46321208
_cell_length_b   4.46475548
_cell_length_c   22.39658818
_cell_angle_alpha   89.99891383
_cell_angle_beta   90.00604480
_cell_angle_gamma   89.99946438
_symmetry_Int_Tables_number   1
_chemical_formula_structural   HfMgTaTiMoC5
_chemical_formula_sum   'Hf4 Mg4 Ta4 Ti4 Mo4 C20'
_cell_volume   446.30018254
_cell_formula_units_Z   4
loop_
 _symmetry_equiv_pos_site_id
 _symmetry_equiv_pos_as_xyz
  1  'x, y, z'
loop_
 _atom_site_type_symbol
 _atom_site_label
 _atom_site_symmetry_multiplicity
 _atom_site_fract_x
 _atom_site_fract_y
 _atom_site_fract_z
 _atom_site_occupancy
  Hf  Hf0  1  0.99993623  0.50085581  0.49612433  1
  Hf  Hf1  1  0.00037538  0.50000542  0.90501630  1
  Hf  Hf2  1  0.50009350  -0.00007726  0.90497470  1
  Hf  Hf3  1  0.49741011  0.50191890  0.80037667  1
  Mg  Mg4  1  -0.00162378  0.99890078  0.00276510  1
  Mg  Mg5  1  0.50051108  0.50188183  0.20316754  1
  Mg  Mg6  1  0.50191018  0.99880977  0.49778161  1
  Mg  Mg7  1  0.50031935  0.49956304  0.59415631  1
  Ta  Ta8  1  1.00043758  0.50053932  0.10191983  1
  Ta  Ta9  1  1.00126240  0.99960240  0.20319322  1
  Ta  Ta10  1  0.00239409  0.00005952  0.59645079  1
  Ta  Ta11  1  0.50126617  -0.00077800  0.69669318  1
  Ti  Ti12  1  0.50016132  0.50255921  0.00591485  1
  Ti  Ti13  1  -0.00294630  0.50085261  0.29997994  1
  Ti  Ti14  1  0.50133187  -0.00230732  0.29970920  1
  Ti  Ti15  1  -0.00239951  -0.00156996  0.39818401  1
  Mo  Mo16  1  0.48667792  0.01763575  0.09848270  1
  Mo  Mo17  1  0.47986742  0.47197426  0.39828154  1
  Mo  Mo18  1  0.98208237  0.51407753  0.69399060  1
  Mo  Mo19  1  0.98810725  0.02064520  0.79732246  1
  C  C20  1  1.00618321  -0.00126716  0.10538755  1
  C  C21  1  0.00157148  0.49870381  0.00566436  1
  C  C22  1  0.50021192  0.99680785  0.00779339  1
  C  C23  1  0.50220622  0.49214251  0.10084254  1
  C  C24  1  1.00323024  1.00059584  0.30128221  1
  C  C25  1  0.00181905  0.49928750  0.20245737  1
  C  C26  1  0.50228537  0.00038621  0.20218807  1
  C  C27  1  0.50949391  0.50768572  0.30298327  1
  C  C28  1  1.00131294  0.00070428  0.49729978  1
  C  C29  1  0.00503173  0.50110516  0.39491825  1
  C  C30  1  0.49948237  0.00719419  0.39424295  1
  C  C31  1  0.50229722  0.50364242  0.48864163  1
  C  C32  1  1.00455747  -0.00979954  0.70031154  1
  C  C33  1  1.00223931  0.49868279  0.60146131  1
  C  C34  1  0.50262037  0.99964548  0.60169928  1
  C  C35  1  0.50803967  0.49769414  0.69980454  1
  C  C36  1  1.00160203  0.99761187  0.89560495  1
  C  C37  1  1.00120079  0.48653619  0.79769564  1
  C  C38  1  0.50688697  -0.00140470  0.79881817  1
  C  C39  1  0.50051108  0.49963649  0.90668292  1
