# generated using pymatgen
data_HfTaTiNiMoC5
_symmetry_space_group_name_H-M   'P 1'
_cell_length_a   4.42147478
_cell_length_b   4.42706511
_cell_length_c   21.98555148
_cell_angle_alpha   89.62684142
_cell_angle_beta   89.97466442
_cell_angle_gamma   90.07186079
_symmetry_Int_Tables_number   1
_chemical_formula_structural   HfTaTiNiMoC5
_chemical_formula_sum   'Hf4 Ta4 Ti4 Ni4 Mo4 C20'
_cell_volume   430.33912160
_cell_formula_units_Z   4
loop_
 _symmetry_equiv_pos_site_id
 _symmetry_equiv_pos_as_xyz
  1  'x, y, z'
loop_
 _atom_site_type_symbol
 _atom_site_label
 _atom_site_symmetry_multiplicity
 _atom_site_fract_x
 _atom_site_fract_y
 _atom_site_fract_z
 _atom_site_occupancy
  Hf  Hf0  1  0.50290207  -0.00151292  0.10636369  1
  Hf  Hf1  1  0.49680963  1.00566875  0.49504266  1
  Hf  Hf2  1  0.49383834  -0.00410701  0.70889507  1
  Hf  Hf3  1  1.00066482  0.49744396  0.89418158  1
  Ta  Ta4  1  0.00202694  0.49836403  0.10732558  1
  Ta  Ta5  1  -0.00125139  0.99867101  0.60158115  1
  Ta  Ta6  1  0.50016228  0.49836684  0.60217326  1
  Ta  Ta7  1  0.50135818  0.99812028  0.89833662  1
  Ti  Ti8  1  0.50053597  0.49748752  1.00178805  1
  Ti  Ti9  1  0.99835287  0.99945006  0.20819379  1
  Ti  Ti10  1  0.00592194  1.00562181  0.39230045  1
  Ti  Ti11  1  0.99609068  0.49692075  0.70784446  1
  Ni  Ni12  1  0.01727464  0.49233890  0.29549040  1
  Ni  Ni13  1  0.50214325  0.50679230  0.20263798  1
  Ni  Ni14  1  0.98325323  1.00640672  0.79999548  1
  Ni  Ni15  1  0.51150624  0.49269695  0.80085637  1
  Mo  Mo16  1  0.01880136  0.97810977  0.99948666  1
  Mo  Mo17  1  0.49363925  1.03918120  0.29612819  1
  Mo  Mo18  1  0.98653034  0.51550783  0.48859121  1
  Mo  Mo19  1  0.51637581  0.51916215  0.38635440  1
  C  C20  1  0.00147119  1.00004521  0.10338823  1
  C  C21  1  -0.00217564  0.50815791  1.00374482  1
  C  C22  1  0.49126091  0.00142875  1.00130055  1
  C  C23  1  0.50262138  0.49856437  0.10394566  1
  C  C24  1  0.00159909  0.00836581  0.30039763  1
  C  C25  1  0.00396383  0.49948100  0.20465161  1
  C  C26  1  0.50077806  -0.00243518  0.20568185  1
  C  C27  1  0.50107294  0.51036909  0.29606496  1
  C  C28  1  0.99883235  -0.00458574  0.49676282  1
  C  C29  1  0.00557424  0.50157136  0.39551135  1
  C  C30  1  0.50398933  1.00060404  0.39389164  1
  C  C31  1  0.50676499  0.50304556  0.49674757  1
  C  C32  1  -0.00540149  0.99721084  0.70244468  1
  C  C33  1  1.00075460  0.49730405  0.59783598  1
  C  C34  1  0.49767412  -0.00151991  0.59969926  1
  C  C35  1  0.49765161  0.49665054  0.70234925  1
  C  C36  1  -0.00046090  -0.00144548  0.90160529  1
  C  C37  1  0.99606962  0.49414502  0.79650701  1
  C  C38  1  0.49952603  -0.00201170  0.80539304  1
  C  C39  1  0.50049857  0.49792908  0.90046609  1
