# generated using pymatgen
data_HfTaTiVMoC5
_symmetry_space_group_name_H-M   'P 1'
_cell_length_a   4.42200282
_cell_length_b   4.42128940
_cell_length_c   21.98971334
_cell_angle_alpha   90.01082000
_cell_angle_beta   89.97432386
_cell_angle_gamma   90.01032069
_symmetry_Int_Tables_number   1
_chemical_formula_structural   HfTaTiVMoC5
_chemical_formula_sum   'Hf4 Ta4 Ti4 V4 Mo4 C20'
_cell_volume   429.91982034
_cell_formula_units_Z   4
loop_
 _symmetry_equiv_pos_site_id
 _symmetry_equiv_pos_as_xyz
  1  'x, y, z'
loop_
 _atom_site_type_symbol
 _atom_site_label
 _atom_site_symmetry_multiplicity
 _atom_site_fract_x
 _atom_site_fract_y
 _atom_site_fract_z
 _atom_site_occupancy
  Hf  Hf0  1  -0.00109060  0.49810432  0.09608300  1
  Hf  Hf1  1  0.49940645  0.00066689  0.09657934  1
  Hf  Hf2  1  0.49974409  1.00008306  0.49970011  1
  Hf  Hf3  1  0.99902946  -0.00066209  0.60427328  1
  Ta  Ta4  1  1.00069457  0.99792107  0.20426238  1
  Ta  Ta5  1  0.00029243  0.49788806  0.30382206  1
  Ta  Ta6  1  0.50096234  0.49969653  0.39925595  1
  Ta  Ta7  1  0.49902525  1.00009981  0.70646670  1
  Ti  Ti8  1  0.49894900  0.49853171  -0.00667559  1
  Ti  Ti9  1  -0.00031041  0.49991661  0.50116005  1
  Ti  Ti10  1  0.49827125  0.49976848  0.60468800  1
  Ti  Ti11  1  0.49427426  0.49915165  0.80029621  1
  V  V12  1  0.50759794  0.00792738  0.30286333  1
  V  V13  1  0.00195239  -0.00137366  0.39896878  1
  V  V14  1  -0.00537019  0.49985778  0.70508166  1
  V  V15  1  1.00266627  1.00998080  0.80071124  1
  Mo  Mo16  1  0.99450897  -0.01420625  -0.01283465  1
  Mo  Mo17  1  0.48560479  0.51808173  0.20540054  1
  Mo  Mo18  1  0.97928824  0.52081553  0.89141061  1
  Mo  Mo19  1  0.52585033  0.97743072  0.89693989  1
  C  C20  1  0.99977701  -0.00148361  0.09816766  1
  C  C21  1  1.00291826  0.50425688  -0.00738793  1
  C  C22  1  0.50524532  0.00281862  -0.00635187  1
  C  C23  1  0.49966267  0.49990691  0.09852454  1
  C  C24  1  0.99640530  0.99907875  0.30354094  1
  C  C25  1  1.00402045  0.49714856  0.20196926  1
  C  C26  1  0.50196930  -0.00546576  0.20539862  1
  C  C27  1  0.50101064  0.49411358  0.30018863  1
  C  C28  1  -0.00024171  1.00070183  0.49601460  1
  C  C29  1  1.00137183  0.50027245  0.40186596  1
  C  C30  1  0.49871621  -0.00084121  0.39569547  1
  C  C31  1  0.50151052  0.50000420  0.50237101  1
  C  C32  1  0.99882256  0.99857170  0.70783178  1
  C  C33  1  1.00236239  0.49935620  0.60450691  1
  C  C34  1  0.49938868  0.99970553  0.60455233  1
  C  C35  1  0.50255061  0.50001298  0.70301072  1
  C  C36  1  1.00881378  1.00925449  0.89318182  1
  C  C37  1  -0.00177186  0.49676887  0.79774595  1
  C  C38  1  0.49515500  1.00111593  0.80292719  1
  C  C39  1  0.49949710  0.49887270  0.89782660  1
