# generated using pymatgen
data_HfTaTiMnMoC5
_symmetry_space_group_name_H-M   'P 1'
_cell_length_a   4.43679887
_cell_length_b   4.43711511
_cell_length_c   22.04167225
_cell_angle_alpha   90.04830595
_cell_angle_beta   90.06673669
_cell_angle_gamma   89.97429452
_symmetry_Int_Tables_number   1
_chemical_formula_structural   HfTaTiMnMoC5
_chemical_formula_sum   'Hf4 Ta4 Ti4 Mn4 Mo4 C20'
_cell_volume   433.92481320
_cell_formula_units_Z   4
loop_
 _symmetry_equiv_pos_site_id
 _symmetry_equiv_pos_as_xyz
  1  'x, y, z'
loop_
 _atom_site_type_symbol
 _atom_site_label
 _atom_site_symmetry_multiplicity
 _atom_site_fract_x
 _atom_site_fract_y
 _atom_site_fract_z
 _atom_site_occupancy
  Hf  Hf0  1  0.50125704  0.00139110  0.09917714  1
  Hf  Hf1  1  0.50001601  0.49895797  0.20208668  1
  Hf  Hf2  1  0.49800572  1.00391134  0.69476161  1
  Hf  Hf3  1  0.49285593  0.49434039  0.79878842  1
  Ta  Ta4  1  1.00210419  0.50136096  0.30462681  1
  Ta  Ta5  1  1.00353622  0.49804667  0.49990908  1
  Ta  Ta6  1  0.49876959  0.00010675  0.49860666  1
  Ta  Ta7  1  -0.00325672  -0.00729739  0.80097082  1
  Ti  Ti8  1  1.00132509  1.00139184  -0.00212071  1
  Ti  Ti9  1  0.49663467  0.49859134  0.99838064  1
  Ti  Ti10  1  0.49447562  0.00182341  0.30466580  1
  Ti  Ti11  1  0.50735547  0.49959800  0.59757734  1
  Mn  Mn12  1  -0.05441082  0.04043026  0.39760883  1
  Mn  Mn13  1  0.55143647  0.54187034  0.39970183  1
  Mn  Mn14  1  0.96640761  0.01861152  0.59917891  1
  Mn  Mn15  1  1.03340386  0.54350460  0.68572639  1
  Mo  Mo16  1  0.99629219  0.51471272  0.09638215  1
  Mo  Mo17  1  0.00666977  1.00836206  0.20224450  1
  Mo  Mo18  1  0.98129385  0.51374063  0.90534321  1
  Mo  Mo19  1  0.52052054  0.98173950  0.90469537  1
  C  C20  1  1.00152016  0.99197078  0.10189673  1
  C  C21  1  0.99945918  0.49887340  1.00065398  1
  C  C22  1  0.49936203  0.00066103  -0.00249251  1
  C  C23  1  0.50601003  0.50018124  0.09815742  1
  C  C24  1  1.00173264  0.00290912  0.30734636  1
  C  C25  1  -0.00089156  0.49053239  0.20170316  1
  C  C26  1  0.49721206  -0.00226740  0.20627796  1
  C  C27  1  0.49709458  0.50140357  0.30886699  1
  C  C28  1  0.00549644  0.99891870  0.50265874  1
  C  C29  1  -0.02402737  0.46694589  0.40229553  1
  C  C30  1  0.52257799  0.96476148  0.40022593  1
  C  C31  1  0.49889672  0.50036622  0.49585486  1
  C  C32  1  0.99749010  0.96411523  0.69295827  1
  C  C33  1  0.00432043  0.48210195  0.60178893  1
  C  C34  1  0.53575932  -0.00059495  0.59543133  1
  C  C35  1  0.46705995  0.50156100  0.69426604  1
  C  C36  1  1.00104108  0.99510870  0.90005656  1
  C  C37  1  -0.00595336  0.49075024  0.80046672  1
  C  C38  1  0.49776810  0.99686146  0.80071247  1
  C  C39  1  0.50074846  0.49917281  0.90229400  1
