# generated using pymatgen
data_HfTaTiCoMoC5
_symmetry_space_group_name_H-M   'P 1'
_cell_length_a   4.43190916
_cell_length_b   4.44592749
_cell_length_c   21.81316987
_cell_angle_alpha   89.99587273
_cell_angle_beta   90.16817279
_cell_angle_gamma   89.91842057
_symmetry_Int_Tables_number   1
_chemical_formula_structural   HfTaTiCoMoC5
_chemical_formula_sum   'Hf4 Ta4 Ti4 Co4 Mo4 C20'
_cell_volume   429.80325019
_cell_formula_units_Z   4
loop_
 _symmetry_equiv_pos_site_id
 _symmetry_equiv_pos_as_xyz
  1  'x, y, z'
loop_
 _atom_site_type_symbol
 _atom_site_label
 _atom_site_symmetry_multiplicity
 _atom_site_fract_x
 _atom_site_fract_y
 _atom_site_fract_z
 _atom_site_occupancy
  Hf  Hf0  1  0.99402977  -0.00703423  0.39699746  1
  Hf  Hf1  1  1.00159959  0.49963809  0.69842850  1
  Hf  Hf2  1  0.50115439  1.00039871  0.69722785  1
  Hf  Hf3  1  0.50346939  0.50042240  0.80895457  1
  Ta  Ta4  1  -0.00268748  0.00239177  0.19587748  1
  Ta  Ta5  1  1.00046740  0.49741822  0.29586372  1
  Ta  Ta6  1  -0.00254908  0.49692965  0.49884150  1
  Ta  Ta7  1  1.00327793  0.99956102  0.81072107  1
  Ti  Ti8  1  -0.00250093  1.00479795  1.00319262  1
  Ti  Ti9  1  0.50602807  0.50789126  1.00520578  1
  Ti  Ti10  1  0.50256426  0.50251454  0.19638367  1
  Ti  Ti11  1  0.49729093  0.48701546  0.39593805  1
  Co  Co12  1  0.45788407  0.95438550  0.10163185  1
  Co  Co13  1  0.47000032  0.94708104  0.30204793  1
  Co  Co14  1  0.46744681  0.04362478  0.49881461  1
  Co  Co15  1  0.45327302  0.04797544  0.91235765  1
  Mo  Mo16  1  0.01578933  0.50000738  0.09920458  1
  Mo  Mo17  1  -0.01738568  0.00426426  0.59204046  1
  Mo  Mo18  1  0.49414804  0.52057518  0.59040361  1
  Mo  Mo19  1  0.01071533  0.51068701  0.91094204  1
  C  C20  1  1.03737137  1.01067718  0.09833907  1
  C  C21  1  0.99790023  0.50367260  1.00403496  1
  C  C22  1  0.50129067  1.00198779  1.00269440  1
  C  C23  1  0.50563197  0.53638303  0.10076833  1
  C  C24  1  1.02720884  -0.00148611  0.29467873  1
  C  C25  1  -0.00357682  0.49820066  0.19715041  1
  C  C26  1  0.50081728  1.00372131  0.19326797  1
  C  C27  1  0.50257929  0.53099978  0.29667641  1
  C  C28  1  1.02705029  -0.00477344  0.49954430  1
  C  C29  1  0.99459124  0.49338940  0.39745421  1
  C  C30  1  0.49477549  0.99426586  0.39311770  1
  C  C31  1  0.50116059  0.46393217  0.49577042  1
  C  C32  1  0.00259391  -0.00066899  0.70081404  1
  C  C33  1  0.00546497  0.49495301  0.59685754  1
  C  C34  1  0.50843579  0.99202419  0.58842219  1
  C  C35  1  0.50195419  0.49894468  0.69555618  1
  C  C36  1  0.03164938  0.99636875  0.90724941  1
  C  C37  1  1.00117544  0.50041583  0.80665434  1
  C  C38  1  0.50204895  -0.00024695  0.80977383  1
  C  C39  1  0.50263549  0.46597099  0.90934934  1
