# generated using pymatgen
data_HfScTaTiMoC5
_symmetry_space_group_name_H-M   'P 1'
_cell_length_a   4.48923703
_cell_length_b   4.48593800
_cell_length_c   22.44956900
_cell_angle_alpha   90.00299455
_cell_angle_beta   89.99862321
_cell_angle_gamma   89.99980318
_symmetry_Int_Tables_number   1
_chemical_formula_structural   HfScTaTiMoC5
_chemical_formula_sum   'Hf4 Sc4 Ta4 Ti4 Mo4 C20'
_cell_volume   452.09927490
_cell_formula_units_Z   4
loop_
 _symmetry_equiv_pos_site_id
 _symmetry_equiv_pos_as_xyz
  1  'x, y, z'
loop_
 _atom_site_type_symbol
 _atom_site_label
 _atom_site_symmetry_multiplicity
 _atom_site_fract_x
 _atom_site_fract_y
 _atom_site_fract_z
 _atom_site_occupancy
  Hf  Hf0  1  0.50021263  0.00076912  0.09434500  1
  Hf  Hf1  1  0.99967613  0.00045681  0.19686551  1
  Hf  Hf2  1  0.00009339  0.50022412  0.30219965  1
  Hf  Hf3  1  0.50025064  -0.00197466  0.70166651  1
  Sc  Sc4  1  0.50178797  0.49675149  0.99601532  1
  Sc  Sc5  1  1.00036433  0.00030258  0.40350821  1
  Sc  Sc6  1  -0.00331773  -0.00187485  0.60197063  1
  Sc  Sc7  1  0.99768679  -0.00070139  0.80183097  1
  Ta  Ta8  1  0.49985175  1.00036509  0.30153761  1
  Ta  Ta9  1  0.49996716  0.50028649  0.19750914  1
  Ta  Ta10  1  0.50028937  1.00119852  0.50347986  1
  Ta  Ta11  1  0.50062398  0.50055388  0.40488460  1
  Ti  Ti12  1  0.99984899  0.49913345  0.09387873  1
  Ti  Ti13  1  0.99981765  0.50043959  0.50419766  1
  Ti  Ti14  1  -0.00077612  0.49970855  0.70104892  1
  Ti  Ti15  1  -0.00032346  0.50075545  0.89879434  1
  Mo  Mo16  1  0.01288955  0.97959894  -0.00662477  1
  Mo  Mo17  1  0.47777450  0.48654944  0.60088862  1
  Mo  Mo18  1  0.51260243  0.98652097  0.89885227  1
  Mo  Mo19  1  0.48014422  0.48658323  0.80441585  1
  C  C20  1  0.99865169  0.00555027  0.09340216  1
  C  C21  1  0.00087901  0.51053230  0.99728877  1
  C  C22  1  0.48796807  0.00079174  -0.00600298  1
  C  C23  1  0.50073090  0.50099849  0.10036246  1
  C  C24  1  -0.00012780  1.00032022  0.29865421  1
  C  C25  1  1.00028716  0.50090482  0.19581477  1
  C  C26  1  0.49960867  1.00009913  0.20078938  1
  C  C27  1  0.50020393  0.50037131  0.30136410  1
  C  C28  1  0.00097958  0.00029164  0.50243040  1
  C  C29  1  1.00137837  0.50020326  0.40533937  1
  C  C30  1  0.50027044  0.00089231  0.40127526  1
  C  C31  1  0.50247953  0.50217951  0.50275058  1
  C  C32  1  1.00120241  -0.00015870  0.70185962  1
  C  C33  1  0.01362505  0.50030826  0.60178041  1
  C  C34  1  0.50016773  1.00955654  0.59927933  1
  C  C35  1  0.50594280  0.50148189  0.69944063  1
  C  C36  1  -0.00958582  0.00679956  0.90300014  1
  C  C37  1  0.01335333  0.50135900  0.80066046  1
  C  C38  1  0.49883534  0.01362527  0.80417125  1
  C  C39  1  0.50156415  0.50877584  0.89482010  1
