# generated using pymatgen
data_HfScTaTiNiC5
_symmetry_space_group_name_H-M   'P 1'
_cell_length_a   4.46051758
_cell_length_b   4.46120347
_cell_length_c   22.28630549
_cell_angle_alpha   89.99948900
_cell_angle_beta   90.01147129
_cell_angle_gamma   89.99902197
_symmetry_Int_Tables_number   1
_chemical_formula_structural   HfScTaTiNiC5
_chemical_formula_sum   'Hf4 Sc4 Ta4 Ti4 Ni4 C20'
_cell_volume   443.48134586
_cell_formula_units_Z   4
loop_
 _symmetry_equiv_pos_site_id
 _symmetry_equiv_pos_as_xyz
  1  'x, y, z'
loop_
 _atom_site_type_symbol
 _atom_site_label
 _atom_site_symmetry_multiplicity
 _atom_site_fract_x
 _atom_site_fract_y
 _atom_site_fract_z
 _atom_site_occupancy
  Hf  Hf0  1  -0.00036817  -0.00088484  0.00142709  1
  Hf  Hf1  1  0.99975166  0.00004987  0.58944874  1
  Hf  Hf2  1  0.99926355  0.50020539  0.69777882  1
  Hf  Hf3  1  0.00007985  0.99959221  0.80387161  1
  Sc  Sc4  1  1.00062565  0.49930080  0.10484650  1
  Sc  Sc5  1  0.49937172  0.49905596  -0.00105291  1
  Sc  Sc6  1  0.50125170  0.49922699  0.20151782  1
  Sc  Sc7  1  0.50094175  0.49924874  0.40387879  1
  Ta  Ta8  1  1.00095516  0.50081605  0.30370053  1
  Ta  Ta9  1  0.50108530  -0.00020284  0.30144021  1
  Ta  Ta10  1  0.50020285  0.49983645  0.59369850  1
  Ta  Ta11  1  0.50009940  0.49932328  0.80333540  1
  Ti  Ti12  1  0.49968214  -0.00114106  0.10638762  1
  Ti  Ti13  1  0.49663834  -0.00014213  0.49110093  1
  Ti  Ti14  1  0.49766538  0.00012602  0.69716635  1
  Ti  Ti15  1  0.50082536  0.99916297  0.90291931  1
  Ni  Ni16  1  0.00299844  0.99460676  0.20283705  1
  Ni  Ni17  1  0.00031860  0.99707315  0.40097320  1
  Ni  Ni18  1  0.00205524  0.49730488  0.49376221  1
  Ni  Ni19  1  0.99354425  0.49710086  0.90150714  1
  C  C20  1  0.99996535  -0.00010087  0.10857860  1
  C  C21  1  0.99942357  0.49972394  0.99395649  1
  C  C22  1  0.49929186  0.99858847  0.00096884  1
  C  C23  1  0.50056562  0.49959720  0.10043591  1
  C  C24  1  0.99993018  1.00056922  0.30294922  1
  C  C25  1  0.00119791  0.50721886  0.20888480  1
  C  C26  1  0.49676551  0.99967608  0.20118010  1
  C  C27  1  0.50092814  0.49949466  0.30248883  1
  C  C28  1  -0.00064577  0.00325678  0.48944192  1
  C  C29  1  1.00077235  0.50508671  0.40415268  1
  C  C30  1  0.49868917  0.99948396  0.39971289  1
  C  C31  1  0.49654900  0.49953490  0.50094378  1
  C  C32  1  0.00165038  0.00034375  0.69696054  1
  C  C33  1  0.99967421  0.50001955  0.59194736  1
  C  C34  1  0.50046791  -0.00038169  0.59705722  1
  C  C35  1  0.50034602  0.49988879  0.69872223  1
  C  C36  1  1.00004076  0.00810512  0.90155774  1
  C  C37  1  0.99987061  0.49992201  0.80359342  1
  C  C38  1  0.50010118  -0.00077241  0.79937393  1
  C  C39  1  0.50384312  0.50127731  0.89661719  1
