# generated using pymatgen
data_HfTaTiVCoC5
_symmetry_space_group_name_H-M   'P 1'
_cell_length_a   4.35452969
_cell_length_b   4.36722854
_cell_length_c   21.94849586
_cell_angle_alpha   90.01746908
_cell_angle_beta   89.97781904
_cell_angle_gamma   89.98318537
_symmetry_Int_Tables_number   1
_chemical_formula_structural   HfTaTiVCoC5
_chemical_formula_sum   'Hf4 Ta4 Ti4 V4 Co4 C20'
_cell_volume   417.39944438
_cell_formula_units_Z   4
loop_
 _symmetry_equiv_pos_site_id
 _symmetry_equiv_pos_as_xyz
  1  'x, y, z'
loop_
 _atom_site_type_symbol
 _atom_site_label
 _atom_site_symmetry_multiplicity
 _atom_site_fract_x
 _atom_site_fract_y
 _atom_site_fract_z
 _atom_site_occupancy
  Hf  Hf0  1  0.50133439  1.00245406  0.09248257  1
  Hf  Hf1  1  0.50051783  0.00207093  0.29868746  1
  Hf  Hf2  1  0.50059918  0.50528035  0.19760289  1
  Hf  Hf3  1  0.49861111  -0.00140320  0.50702912  1
  Ta  Ta4  1  0.99968822  0.99754243  0.39787001  1
  Ta  Ta5  1  -0.00145369  0.49833404  0.50632989  1
  Ta  Ta6  1  0.50603737  1.00310962  0.89667721  1
  Ta  Ta7  1  0.50062097  0.49993718  0.79854796  1
  Ti  Ti8  1  0.49882385  0.50003815  0.99694824  1
  Ti  Ti9  1  0.49927231  0.49944027  0.39881333  1
  Ti  Ti10  1  0.00006504  0.49849523  0.70110892  1
  Ti  Ti11  1  0.49934809  -0.00248623  0.70184733  1
  V  V12  1  0.00045332  0.01095081  0.19779725  1
  V  V13  1  0.99611278  0.98926177  0.60997732  1
  V  V14  1  0.50843911  0.49185051  0.60803473  1
  V  V15  1  0.00032211  0.51266308  0.89953146  1
  Co  Co16  1  0.01509517  0.02267976  -0.01802510  1
  Co  Co17  1  0.00108580  0.51085635  0.11142229  1
  Co  Co18  1  0.00471730  0.50386014  0.29805622  1
  Co  Co19  1  0.01135089  0.03943755  0.79879379  1
  C  C20  1  0.00080637  -0.01689067  0.11002854  1
  C  C21  1  1.00001779  0.48495415  -0.01215608  1
  C  C22  1  0.49010325  0.00081868  -0.00698821  1
  C  C23  1  0.50124284  0.50202266  0.09335961  1
  C  C24  1  -0.00003080  0.98872777  0.29620221  1
  C  C25  1  1.00063680  0.49409097  0.19979173  1
  C  C26  1  0.50103631  1.00430716  0.19780623  1
  C  C27  1  0.49276361  0.50113600  0.30300020  1
  C  C28  1  0.99898643  -0.00151007  0.50562257  1
  C  C29  1  -0.00122564  0.49733213  0.39773116  1
  C  C30  1  0.49973775  0.99944712  0.40258067  1
  C  C31  1  0.49780050  0.49887504  0.50582990  1
  C  C32  1  0.99768625  -0.00284658  0.70459176  1
  C  C33  1  0.99281615  0.50173429  0.60493590  1
  C  C34  1  0.49794728  0.00381252  0.60762370  1
  C  C35  1  0.49953594  0.49966674  0.69927520  1
  C  C36  1  1.00249882  -0.00558877  0.89531728  1
  C  C37  1  -0.00077185  0.46219934  0.80133107  1
  C  C38  1  0.48738842  -0.00161651  0.79773131  1
  C  C39  1  0.50466917  0.50497895  0.89703437  1
