# generated using pymatgen
data_HfMgTaTiVC5
_symmetry_space_group_name_H-M   'P 1'
_cell_length_a   4.43607155
_cell_length_b   4.43623242
_cell_length_c   22.23554483
_cell_angle_alpha   90.01841279
_cell_angle_beta   90.01966623
_cell_angle_gamma   89.98821673
_symmetry_Int_Tables_number   1
_chemical_formula_structural   HfMgTaTiVC5
_chemical_formula_sum   'Hf4 Mg4 Ta4 Ti4 V4 C20'
_cell_volume   437.58311152
_cell_formula_units_Z   4
loop_
 _symmetry_equiv_pos_site_id
 _symmetry_equiv_pos_as_xyz
  1  'x, y, z'
loop_
 _atom_site_type_symbol
 _atom_site_label
 _atom_site_symmetry_multiplicity
 _atom_site_fract_x
 _atom_site_fract_y
 _atom_site_fract_z
 _atom_site_occupancy
  Hf  Hf0  1  0.49961224  0.49934785  -0.00347482  1
  Hf  Hf1  1  0.00028027  0.50008724  0.30123106  1
  Hf  Hf2  1  0.50055142  -0.00000259  0.30074852  1
  Hf  Hf3  1  1.00067335  0.50041256  0.50920353  1
  Mg  Mg4  1  0.99983969  -0.00075539  -0.00638464  1
  Mg  Mg5  1  0.50145403  1.00157924  0.50516433  1
  Mg  Mg6  1  -0.00060575  0.49916935  0.89863330  1
  Mg  Mg7  1  0.49943034  0.99908285  0.89965314  1
  Ta  Ta8  1  1.00038086  0.00020695  0.19606717  1
  Ta  Ta9  1  0.50010231  0.50011264  0.40796538  1
  Ta  Ta10  1  0.49879003  0.99858162  0.69536661  1
  Ta  Ta11  1  0.49934412  0.49869173  0.80063483  1
  Ti  Ti12  1  -0.00004789  0.49741464  0.09669844  1
  Ti  Ti13  1  0.50004974  -0.00178827  0.09666844  1
  Ti  Ti14  1  0.00014889  1.00010929  0.40914490  1
  Ti  Ti15  1  -0.00103437  -0.00104812  0.79999810  1
  V  V16  1  0.50253935  0.49762327  0.19410847  1
  V  V17  1  0.00951882  1.00212704  0.60072868  1
  V  V18  1  0.00623525  0.50767364  0.69462817  1
  V  V19  1  0.50438986  0.51264894  0.60106027  1
  C  C20  1  -0.00018891  0.00145460  0.10123090  1
  C  C21  1  -0.00042062  0.49986294  1.00496286  1
  C  C22  1  0.49981976  0.99968677  1.00490172  1
  C  C23  1  0.49935162  0.50125335  0.10450531  1
  C  C24  1  1.00028442  0.00021767  0.30188154  1
  C  C25  1  -0.00157695  0.50030548  0.19802311  1
  C  C26  1  0.50037651  1.00221589  0.19773395  1
  C  C27  1  0.49978447  0.50048407  0.30046524  1
  C  C28  1  1.00066885  1.00054979  0.50838520  1
  C  C29  1  0.99989376  0.50010660  0.40496564  1
  C  C30  1  0.49958831  1.00017120  0.40421376  1
  C  C31  1  0.50090034  0.50061897  0.50789031  1
  C  C32  1  0.99882144  0.99476954  0.69463377  1
  C  C33  1  -0.00295069  0.49777691  0.60677273  1
  C  C34  1  0.49320294  0.99120792  0.60199752  1
  C  C35  1  0.49703138  0.49755973  0.69500305  1
  C  C36  1  -0.00072260  0.99893028  0.88772665  1
  C  C37  1  -0.00161137  0.49818172  0.78885367  1
  C  C38  1  0.49907961  0.99880431  0.79383845  1
  C  C39  1  0.49933461  0.49900798  0.89399225  1
