# generated using pymatgen
data_HfTaTiMnVC5
_symmetry_space_group_name_H-M   'P 1'
_cell_length_a   4.40376794
_cell_length_b   4.42981812
_cell_length_c   21.71497026
_cell_angle_alpha   89.92308322
_cell_angle_beta   90.20428161
_cell_angle_gamma   90.12379660
_symmetry_Int_Tables_number   1
_chemical_formula_structural   HfTaTiMnVC5
_chemical_formula_sum   'Hf4 Ta4 Ti4 Mn4 V4 C20'
_cell_volume   423.60921456
_cell_formula_units_Z   4
loop_
 _symmetry_equiv_pos_site_id
 _symmetry_equiv_pos_as_xyz
  1  'x, y, z'
loop_
 _atom_site_type_symbol
 _atom_site_label
 _atom_site_symmetry_multiplicity
 _atom_site_fract_x
 _atom_site_fract_y
 _atom_site_fract_z
 _atom_site_occupancy
  Hf  Hf0  1  0.49469882  0.00246327  0.09255159  1
  Hf  Hf1  1  0.99675425  1.00082458  0.19785519  1
  Hf  Hf2  1  -0.00058046  1.00112878  0.40182942  1
  Hf  Hf3  1  1.00868325  0.49568465  0.70514279  1
  Ta  Ta4  1  -0.00250348  0.49930781  0.09282126  1
  Ta  Ta5  1  -0.00356941  0.50096301  0.29882031  1
  Ta  Ta6  1  0.50154360  -0.00139552  0.50384345  1
  Ta  Ta7  1  1.00354886  0.99764026  0.60398326  1
  Ti  Ti8  1  0.49871770  0.49978753  0.40058444  1
  Ti  Ti9  1  0.50423833  0.49827727  0.60367883  1
  Ti  Ti10  1  -0.00101761  0.99503203  0.80451351  1
  Ti  Ti11  1  1.00586188  0.50409390  0.89991554  1
  Mn  Mn12  1  0.95362466  0.95312299  0.98998201  1
  Mn  Mn13  1  0.54063599  0.54785631  -0.01345873  1
  Mn  Mn14  1  0.45219862  1.06371204  0.89858009  1
  Mn  Mn15  1  0.53880968  0.44258247  0.80120451  1
  V  V16  1  0.49775776  0.99404794  0.29789186  1
  V  V17  1  0.49664982  0.49884436  0.20067890  1
  V  V18  1  0.00793489  0.50310893  0.50310598  1
  V  V19  1  0.50162327  0.99847144  0.70820253  1
  C  C20  1  -0.00267735  0.00393335  0.08741959  1
  C  C21  1  -0.01945463  0.52607161  -0.00475561  1
  C  C22  1  0.52934619  0.97446815  -0.01425865  1
  C  C23  1  0.49586445  0.50103872  0.09699487  1
  C  C24  1  -0.00258175  1.00133690  0.29932439  1
  C  C25  1  0.99561992  0.50165818  0.19742279  1
  C  C26  1  0.49699066  0.00443209  0.20124092  1
  C  C27  1  0.49644797  0.50629346  0.29755072  1
  C  C28  1  1.00241159  0.99638508  0.50499206  1
  C  C29  1  0.99855500  0.50077522  0.40330874  1
  C  C30  1  0.49955855  1.00164044  0.39897115  1
  C  C31  1  0.49842073  0.49881189  0.50299144  1
  C  C32  1  0.01267449  0.99317245  0.70557686  1
  C  C33  1  0.00209244  0.49805655  0.59954984  1
  C  C34  1  0.50426524  0.99906079  0.60806734  1
  C  C35  1  0.50629786  0.48537798  0.71010375  1
  C  C36  1  0.02777128  1.00490649  0.90245721  1
  C  C37  1  -0.03336571  0.50025525  0.80541389  1
  C  C38  1  0.50201928  1.02071487  0.80694117  1
  C  C39  1  0.49952641  0.48206198  0.89912204  1
