# generated using pymatgen
data_HfTaTiVNiC5
_symmetry_space_group_name_H-M   'P 1'
_cell_length_a   4.39347725
_cell_length_b   4.39650085
_cell_length_c   21.74873943
_cell_angle_alpha   89.97281237
_cell_angle_beta   89.98289451
_cell_angle_gamma   89.99526217
_symmetry_Int_Tables_number   1
_chemical_formula_structural   HfTaTiVNiC5
_chemical_formula_sum   'Hf4 Ta4 Ti4 V4 Ni4 C20'
_cell_volume   420.09698370
_cell_formula_units_Z   4
loop_
 _symmetry_equiv_pos_site_id
 _symmetry_equiv_pos_as_xyz
  1  'x, y, z'
loop_
 _atom_site_type_symbol
 _atom_site_label
 _atom_site_symmetry_multiplicity
 _atom_site_fract_x
 _atom_site_fract_y
 _atom_site_fract_z
 _atom_site_occupancy
  Hf  Hf0  1  0.00065787  1.00152963  0.19688436  1
  Hf  Hf1  1  0.00073232  0.50080877  0.30552894  1
  Hf  Hf2  1  0.50106412  1.00101122  0.30538070  1
  Hf  Hf3  1  0.99941734  0.50049273  0.70444512  1
  Ta  Ta4  1  0.00010565  1.00084088  -0.00780495  1
  Ta  Ta5  1  0.00057432  0.50085642  0.09631571  1
  Ta  Ta6  1  0.50112429  0.49999973  -0.00903952  1
  Ta  Ta7  1  0.49996068  0.49931514  0.59734452  1
  Ti  Ti8  1  0.49981513  0.49873583  0.40986611  1
  Ti  Ti9  1  0.99882185  0.00021980  0.59651480  1
  Ti  Ti10  1  0.49945261  0.00072082  0.70506941  1
  Ti  Ti11  1  0.99699320  0.00138321  0.80346360  1
  V  V12  1  0.50136557  0.50528066  0.19481860  1
  V  V13  1  0.00057164  1.00245054  0.41341288  1
  V  V14  1  0.48700358  -0.00726462  0.50085411  1
  V  V15  1  0.49223920  0.98270892  0.89092471  1
  Ni  Ni16  1  0.50165842  0.00172749  0.09807833  1
  Ni  Ni17  1  1.00013720  0.50319232  0.50069621  1
  Ni  Ni18  1  0.01543309  0.50380395  0.89491525  1
  Ni  Ni19  1  0.49555895  0.50178580  0.80289673  1
  C  C20  1  1.00113583  1.00053687  0.09414017  1
  C  C21  1  1.00094447  0.49992335  0.99245614  1
  C  C22  1  0.50178466  0.00133845  -0.00583004  1
  C  C23  1  0.49995287  0.50005609  0.09910657  1
  C  C24  1  1.00152556  1.00027862  0.31007187  1
  C  C25  1  0.99847390  0.49996775  0.19746068  1
  C  C26  1  0.50032169  -0.00518017  0.19594444  1
  C  C27  1  0.50051281  0.50043935  0.29968110  1
  C  C28  1  0.00632195  0.99898603  0.50103956  1
  C  C29  1  0.99945560  0.49643571  0.40939233  1
  C  C30  1  0.50020677  1.00013758  0.40997768  1
  C  C31  1  0.49841748  0.50462485  0.50175761  1
  C  C32  1  0.99971616  0.00050318  0.70026765  1
  C  C33  1  -0.00048017  0.49986042  0.59641698  1
  C  C34  1  0.49979581  1.00052059  0.59854942  1
  C  C35  1  0.49945668  0.50044563  0.70331253  1
  C  C36  1  0.00193388  -0.00423627  0.89592485  1
  C  C37  1  1.00051765  0.49871290  0.80546309  1
  C  C38  1  0.49845103  0.99749166  0.80131525  1
  C  C39  1  0.49611071  0.51020613  0.89346528  1
