# generated using pymatgen
data_HfScTaTiVC5
_symmetry_space_group_name_H-M   'P 1'
_cell_length_a   4.46910143
_cell_length_b   4.46690522
_cell_length_c   22.37833470
_cell_angle_alpha   90.00069677
_cell_angle_beta   90.00354909
_cell_angle_gamma   90.00327518
_symmetry_Int_Tables_number   1
_chemical_formula_structural   HfScTaTiVC5
_chemical_formula_sum   'Hf4 Sc4 Ta4 Ti4 V4 C20'
_cell_volume   446.73986876
_cell_formula_units_Z   4
loop_
 _symmetry_equiv_pos_site_id
 _symmetry_equiv_pos_as_xyz
  1  'x, y, z'
loop_
 _atom_site_type_symbol
 _atom_site_label
 _atom_site_symmetry_multiplicity
 _atom_site_fract_x
 _atom_site_fract_y
 _atom_site_fract_z
 _atom_site_occupancy
  Hf  Hf0  1  0.49990209  0.49988954  1.00386104  1
  Hf  Hf1  1  1.00002925  0.50018399  0.50033598  1
  Hf  Hf2  1  0.99944670  0.49933526  0.89903799  1
  Hf  Hf3  1  0.49965061  0.99876503  0.89762000  1
  Sc  Sc4  1  1.00036104  0.50031192  0.30050585  1
  Sc  Sc5  1  0.50254789  0.50030236  0.40164679  1
  Sc  Sc6  1  0.99914752  0.49866539  0.69677950  1
  Sc  Sc7  1  0.49887066  0.49836042  0.79561056  1
  Ta  Ta8  1  0.50024081  1.00025562  0.10291473  1
  Ta  Ta9  1  0.49904087  0.99995059  0.30291296  1
  Ta  Ta10  1  0.49933332  0.49931426  0.19995917  1
  Ta  Ta11  1  0.49972635  -0.00096872  0.69486322  1
  Ti  Ti12  1  -0.00007872  0.00113547  0.00515799  1
  Ti  Ti13  1  -0.00067884  1.00027639  0.20027982  1
  Ti  Ti14  1  0.49971430  0.00067307  0.50116488  1
  Ti  Ti15  1  0.99923803  0.00102827  0.59865196  1
  V  V16  1  -0.00005106  0.50818371  0.10328577  1
  V  V17  1  0.00966670  1.00911361  0.40156120  1
  V  V18  1  0.48687837  0.51427145  0.59798891  1
  V  V19  1  0.99556518  0.98924883  0.79505947  1
  C  C20  1  -0.00006232  0.99660236  0.10236979  1
  C  C21  1  0.99994030  0.49865654  0.00741852  1
  C  C22  1  0.50014231  0.99989187  1.00382893  1
  C  C23  1  0.50013945  0.50183861  0.10375668  1
  C  C24  1  0.99935550  0.99969038  0.30269435  1
  C  C25  1  -0.00032210  0.49831705  0.19527390  1
  C  C26  1  0.49897253  0.99978879  0.20189460  1
  C  C27  1  0.50053420  0.50065190  0.29752258  1
  C  C28  1  0.99924678  0.99953499  0.49704672  1
  C  C29  1  0.00216069  0.48523298  0.40095848  1
  C  C30  1  0.48839387  0.99948124  0.40182181  1
  C  C31  1  0.50182023  0.49730498  0.50649691  1
  C  C32  1  0.99986134  0.99975785  0.69958663  1
  C  C33  1  0.01210390  0.50131828  0.59849466  1
  C  C34  1  0.50019316  0.99146719  0.59690310  1
  C  C35  1  0.50065268  0.49756828  0.68987146  1
  C  C36  1  0.00010663  0.00081018  0.89840868  1
  C  C37  1  -0.00105906  0.51634701  0.79923495  1
  C  C38  1  0.50675474  0.99883686  0.79477463  1
  C  C39  1  0.49942369  0.49912918  0.90213860  1
