# generated using pymatgen
data_HfTiVCoNiC5
_symmetry_space_group_name_H-M   'P 1'
_cell_length_a   4.30199005
_cell_length_b   4.33256754
_cell_length_c   21.07827380
_cell_angle_alpha   90.08411567
_cell_angle_beta   90.24723464
_cell_angle_gamma   89.91280954
_symmetry_Int_Tables_number   1
_chemical_formula_structural   HfTiVCoNiC5
_chemical_formula_sum   'Hf4 Ti4 V4 Co4 Ni4 C20'
_cell_volume   392.86629837
_cell_formula_units_Z   4
loop_
 _symmetry_equiv_pos_site_id
 _symmetry_equiv_pos_as_xyz
  1  'x, y, z'
loop_
 _atom_site_type_symbol
 _atom_site_label
 _atom_site_symmetry_multiplicity
 _atom_site_fract_x
 _atom_site_fract_y
 _atom_site_fract_z
 _atom_site_occupancy
  Hf  Hf0  1  0.49178657  1.00018073  0.49351302  1
  Hf  Hf1  1  0.49000884  0.49638854  0.38697875  1
  Hf  Hf2  1  0.49557145  0.01019041  0.70733835  1
  Hf  Hf3  1  0.00122584  0.48716904  0.90402759  1
  Ti  Ti4  1  0.51865799  1.00867547  0.09986775  1
  Ti  Ti5  1  0.01894286  1.01088442  0.19560947  1
  Ti  Ti6  1  0.99366134  0.00104722  0.60084032  1
  Ti  Ti7  1  0.50759692  -0.00386956  0.90681526  1
  V  V8  1  0.52384372  -0.01217604  0.29071876  1
  V  V9  1  -0.01102937  0.49964318  0.49639213  1
  V  V10  1  0.99053720  0.50726906  0.70620003  1
  V  V11  1  0.48102527  0.50615340  0.60122570  1
  Co  Co12  1  0.03292549  0.95326371  1.00605988  1
  Co  Co13  1  0.97912318  0.52904995  0.28363271  1
  Co  Co14  1  0.50634574  0.50187829  0.19459996  1
  Co  Co15  1  0.47664612  0.53453732  0.80419879  1
  Ni  Ni16  1  1.00578749  0.50462115  0.10343185  1
  Ni  Ni17  1  0.48668717  0.51347172  0.01249527  1
  Ni  Ni18  1  0.99111738  0.99533149  0.39252013  1
  Ni  Ni19  1  0.00648244  0.97512172  0.80470768  1
  C  C20  1  1.01068673  0.00387742  0.09518677  1
  C  C21  1  -0.00576939  0.53543698  1.01318393  1
  C  C22  1  0.46330701  1.00433471  0.00380958  1
  C  C23  1  0.51103061  0.50711016  0.10680624  1
  C  C24  1  1.00169303  0.98042693  0.29803233  1
  C  C25  1  1.01275781  0.50675311  0.19857266  1
  C  C26  1  0.51024483  0.01773570  0.19904922  1
  C  C27  1  0.51107247  0.50017047  0.28352397  1
  C  C28  1  0.99220366  0.00028423  0.49545455  1
  C  C29  1  0.99084324  0.49777420  0.40451109  1
  C  C30  1  0.48772307  0.99752291  0.38528879  1
  C  C31  1  0.49682825  0.50042297  0.50258322  1
  C  C32  1  -0.00474185  -0.00034290  0.70461394  1
  C  C33  1  0.01428620  0.49960644  0.60156001  1
  C  C34  1  0.49645732  -0.00218046  0.60066652  1
  C  C35  1  0.50035293  0.50681165  0.70349044  1
  C  C36  1  0.00145461  -0.01093284  0.91229276  1
  C  C37  1  0.01698051  0.49215656  0.79559027  1
  C  C38  1  0.50028377  -0.04692829  0.80972618  1
  C  C39  1  0.50262988  0.48933003  0.89581505  1
