# generated using pymatgen
data_HfScTiVCoC5
_symmetry_space_group_name_H-M   'P 1'
_cell_length_a   4.42442129
_cell_length_b   4.42168524
_cell_length_c   21.57646833
_cell_angle_alpha   89.89987147
_cell_angle_beta   89.91716962
_cell_angle_gamma   89.97016872
_symmetry_Int_Tables_number   1
_chemical_formula_structural   HfScTiVCoC5
_chemical_formula_sum   'Hf4 Sc4 Ti4 V4 Co4 C20'
_cell_volume   422.10790171
_cell_formula_units_Z   4
loop_
 _symmetry_equiv_pos_site_id
 _symmetry_equiv_pos_as_xyz
  1  'x, y, z'
loop_
 _atom_site_type_symbol
 _atom_site_label
 _atom_site_symmetry_multiplicity
 _atom_site_fract_x
 _atom_site_fract_y
 _atom_site_fract_z
 _atom_site_occupancy
  Hf  Hf0  1  0.99586424  0.00012124  0.99966307  1
  Hf  Hf1  1  0.49422890  0.99830735  0.10158882  1
  Hf  Hf2  1  0.99562623  0.49194456  0.51079465  1
  Hf  Hf3  1  0.49925950  -0.00556846  0.50628853  1
  Sc  Sc4  1  1.00618383  0.50031292  0.29930963  1
  Sc  Sc5  1  1.00371630  0.99837489  0.40164601  1
  Sc  Sc6  1  0.00609351  0.00482952  0.79219622  1
  Sc  Sc7  1  0.00205664  0.50288418  0.89503448  1
  Ti  Ti8  1  1.00110951  -0.00683377  0.20068259  1
  Ti  Ti9  1  0.50250219  0.49699134  0.20034225  1
  Ti  Ti10  1  0.51604447  0.01548722  0.69744341  1
  Ti  Ti11  1  0.50142665  1.00194962  0.89450102  1
  V  V12  1  0.48785885  0.50380103  0.99926877  1
  V  V13  1  0.51372679  1.00958997  0.29975637  1
  V  V14  1  0.51568707  0.50720170  0.39994286  1
  V  V15  1  0.50630732  0.51067726  0.78928917  1
  Co  Co16  1  0.96207271  0.47355425  0.09933012  1
  Co  Co17  1  1.03684823  0.96046319  0.60643447  1
  Co  Co18  1  -0.01956345  0.48605281  0.69777346  1
  Co  Co19  1  0.46590688  0.52332495  0.61463294  1
  C  C20  1  0.99735581  0.03258719  0.10383582  1
  C  C21  1  0.01580521  0.50172613  0.00921991  1
  C  C22  1  0.49677892  -0.00636710  0.99595014  1
  C  C23  1  0.54487517  0.50108311  0.09623436  1
  C  C24  1  0.99189732  -0.00014036  0.29663706  1
  C  C25  1  0.00502440  0.50010128  0.18869314  1
  C  C26  1  0.49721971  0.99344578  0.20614334  1
  C  C27  1  0.50457471  0.47969599  0.30141424  1
  C  C28  1  -0.00372992  -0.00580245  0.51571126  1
  C  C29  1  0.98257920  0.49809435  0.40453918  1
  C  C30  1  0.50188528  0.97982446  0.39450220  1
  C  C31  1  0.49294164  0.49338997  0.49845389  1
  C  C32  1  -0.00053180  1.03506781  0.68825599  1
  C  C33  1  0.00251141  0.52899352  0.61418308  1
  C  C34  1  0.45705214  0.98424785  0.60603546  1
  C  C35  1  0.51316849  0.50862524  0.69873025  1
  C  C36  1  0.00098713  0.00292218  0.89671793  1
  C  C37  1  0.00027736  0.50542095  0.78448396  1
  C  C38  1  0.50387055  -0.00522751  0.79570524  1
  C  C39  1  0.50294261  0.49753349  0.89776016  1
