# generated using pymatgen
data_HfMgTiVCoC5
_symmetry_space_group_name_H-M   'P 1'
_cell_length_a   4.39184485
_cell_length_b   4.39518602
_cell_length_c   21.34959049
_cell_angle_alpha   90.10697478
_cell_angle_beta   90.04591036
_cell_angle_gamma   90.02379830
_symmetry_Int_Tables_number   1
_chemical_formula_structural   HfMgTiVCoC5
_chemical_formula_sum   'Hf4 Mg4 Ti4 V4 Co4 C20'
_cell_volume   412.10972783
_cell_formula_units_Z   4
loop_
 _symmetry_equiv_pos_site_id
 _symmetry_equiv_pos_as_xyz
  1  'x, y, z'
loop_
 _atom_site_type_symbol
 _atom_site_label
 _atom_site_symmetry_multiplicity
 _atom_site_fract_x
 _atom_site_fract_y
 _atom_site_fract_z
 _atom_site_occupancy
  Hf  Hf0  1  0.00301579  0.50070786  0.09931068  1
  Hf  Hf1  1  0.49936276  -0.00417699  0.49043375  1
  Hf  Hf2  1  1.00416249  0.49223008  0.70986689  1
  Hf  Hf3  1  0.50174597  0.49687277  0.60039109  1
  Mg  Mg4  1  0.99989673  0.49566385  0.49257650  1
  Mg  Mg5  1  0.49958006  0.49714545  0.39543971  1
  Mg  Mg6  1  0.99920964  0.99725199  0.80767793  1
  Mg  Mg7  1  0.49517760  -0.00929767  0.89783706  1
  Ti  Ti8  1  0.50245646  0.00115335  0.10058502  1
  Ti  Ti9  1  0.49942566  0.50172339  -0.00459933  1
  Ti  Ti10  1  0.50659049  0.50321844  0.20264140  1
  Ti  Ti11  1  0.00109946  -0.00458348  0.59895517  1
  V  V12  1  0.98761991  0.99424742  0.20573214  1
  V  V13  1  0.46751890  -0.00121059  0.29935637  1
  V  V14  1  0.51348585  -0.01745436  0.70702500  1
  V  V15  1  0.98482541  0.47920292  0.90372584  1
  Co  Co16  1  1.03518463  0.97970279  0.99710311  1
  Co  Co17  1  0.03493474  0.47681990  0.29707533  1
  Co  Co18  1  0.97883472  -0.03293133  0.39016343  1
  Co  Co19  1  0.47517286  0.47021037  0.80700171  1
  C  C20  1  0.00312225  0.00195490  0.10486794  1
  C  C21  1  1.00025096  0.52677622  0.99613616  1
  C  C22  1  0.46794316  0.00268984  0.00344938  1
  C  C23  1  0.50339395  0.50061444  0.09944689  1
  C  C24  1  0.99309278  0.03495353  0.29994926  1
  C  C25  1  -0.00332324  0.51440398  0.20821250  1
  C  C26  1  0.50971229  0.00325428  0.20262916  1
  C  C27  1  0.45735820  0.50923808  0.29581409  1
  C  C28  1  1.00025424  0.99462416  0.48728828  1
  C  C29  1  -0.00226756  0.56267719  0.37992477  1
  C  C30  1  0.51833955  0.00123179  0.38705064  1
  C  C31  1  0.49932935  0.49501259  0.49709561  1
  C  C32  1  0.99255157  -0.00749669  0.70035039  1
  C  C33  1  1.00227991  0.49423582  0.60238541  1
  C  C34  1  0.49909349  0.99840996  0.60501695  1
  C  C35  1  0.50541359  0.51061038  0.71408104  1
  C  C36  1  -0.00446026  0.00883853  0.91363822  1
  C  C37  1  1.04985658  0.50364000  0.81472154  1
  C  C38  1  0.50381840  0.04308781  0.79448450  1
  C  C39  1  0.51414471  0.49206204  0.89600809  1
