# generated using pymatgen
data_HfMgTiMnVC5
_symmetry_space_group_name_H-M   'P 1'
_cell_length_a   4.41809529
_cell_length_b   4.41369539
_cell_length_c   21.50985553
_cell_angle_alpha   90.28825019
_cell_angle_beta   89.84253932
_cell_angle_gamma   90.04493043
_symmetry_Int_Tables_number   1
_chemical_formula_structural   HfMgTiMnVC5
_chemical_formula_sum   'Hf4 Mg4 Ti4 Mn4 V4 C20'
_cell_volume   419.43789396
_cell_formula_units_Z   4
loop_
 _symmetry_equiv_pos_site_id
 _symmetry_equiv_pos_as_xyz
  1  'x, y, z'
loop_
 _atom_site_type_symbol
 _atom_site_label
 _atom_site_symmetry_multiplicity
 _atom_site_fract_x
 _atom_site_fract_y
 _atom_site_fract_z
 _atom_site_occupancy
  Hf  Hf0  1  0.49728048  0.49695236  0.39316842  1
  Hf  Hf1  1  -0.00447264  0.50374872  0.70026516  1
  Hf  Hf2  1  0.49657005  0.00319353  0.69946786  1
  Hf  Hf3  1  0.49663264  1.01221894  0.91153904  1
  Mg  Mg4  1  0.50781913  0.99697312  0.29511620  1
  Mg  Mg5  1  -0.00921916  0.50262334  0.49213215  1
  Mg  Mg6  1  -0.00413950  0.00838275  0.80698607  1
  Mg  Mg7  1  0.98420879  0.51630890  0.90906767  1
  Ti  Ti8  1  0.00906479  0.49099193  0.29098547  1
  Ti  Ti9  1  -0.00338952  1.00374201  0.58926599  1
  Ti  Ti10  1  0.49504633  0.50202438  0.59065976  1
  Ti  Ti11  1  0.49522439  0.50799671  0.80786513  1
  Mn  Mn12  1  1.05254803  0.05679321  1.01097875  1
  Mn  Mn13  1  0.06494720  0.41276145  0.10613700  1
  Mn  Mn14  1  0.43017816  0.53848423  1.00859250  1
  Mn  Mn15  1  0.56901428  0.54630500  0.19527206  1
  V  V16  1  0.51872158  0.01353407  0.10491089  1
  V  V17  1  1.01329983  -0.02094700  0.19942726  1
  V  V18  1  0.99314548  -0.00595657  0.39407057  1
  V  V19  1  0.47851670  0.01171122  0.49318071  1
  C  C20  1  -0.00984263  -0.00188014  0.10197779  1
  C  C21  1  0.01069060  0.48824930  1.01802477  1
  C  C22  1  0.46940187  -0.03434945  0.01437725  1
  C  C23  1  0.48400821  0.47904644  0.10703877  1
  C  C24  1  0.00912218  -0.00444409  0.29187932  1
  C  C25  1  -0.01470724  0.49481083  0.19221062  1
  C  C26  1  0.50779658  -0.03825738  0.19460721  1
  C  C27  1  0.49945899  0.49194817  0.28343609  1
  C  C28  1  1.01441098  1.00126323  0.48764428  1
  C  C29  1  -0.00222958  0.50295838  0.38827237  1
  C  C30  1  0.51323406  0.99693617  0.39891764  1
  C  C31  1  0.49230380  0.48867939  0.49605742  1
  C  C32  1  -0.00349880  0.00330166  0.69079772  1
  C  C33  1  0.99479889  0.49918114  0.59379423  1
  C  C34  1  0.49865547  0.99668916  0.58828819  1
  C  C35  1  0.49503492  0.50279075  0.69961272  1
  C  C36  1  0.99053350  0.01403837  0.92380297  1
  C  C37  1  0.98876129  0.50827128  0.80554458  1
  C  C38  1  0.49504771  0.00607893  0.80555542  1
  C  C39  1  0.48603773  0.51111178  0.91798594  1
