# generated using pymatgen
data_HfMgTiVNiC5
_symmetry_space_group_name_H-M   'P 1'
_cell_length_a   4.37702893
_cell_length_b   4.37900875
_cell_length_c   21.49425205
_cell_angle_alpha   90.05703757
_cell_angle_beta   89.96924087
_cell_angle_gamma   89.98514101
_symmetry_Int_Tables_number   1
_chemical_formula_structural   HfMgTiVNiC5
_chemical_formula_sum   'Hf4 Mg4 Ti4 V4 Ni4 C20'
_cell_volume   411.98108213
_cell_formula_units_Z   4
loop_
 _symmetry_equiv_pos_site_id
 _symmetry_equiv_pos_as_xyz
  1  'x, y, z'
loop_
 _atom_site_type_symbol
 _atom_site_label
 _atom_site_symmetry_multiplicity
 _atom_site_fract_x
 _atom_site_fract_y
 _atom_site_fract_z
 _atom_site_occupancy
  Hf  Hf0  1  0.99806124  -0.00618881  1.00333128  1
  Hf  Hf1  1  0.49045044  0.01205035  0.30102247  1
  Hf  Hf2  1  0.00338647  0.99826305  0.40724615  1
  Hf  Hf3  1  0.00084134  0.49660847  0.89229271  1
  Mg  Mg4  1  -0.00080968  0.49336338  0.11002884  1
  Mg  Mg5  1  0.49709435  0.50239142  0.20060189  1
  Mg  Mg6  1  0.00502985  0.49829732  0.50039971  1
  Mg  Mg7  1  0.50230288  1.00978905  0.69784074  1
  Ti  Ti8  1  0.49845035  0.99568988  0.10485119  1
  Ti  Ti9  1  0.50010149  0.50399202  0.59589410  1
  Ti  Ti10  1  0.50079019  0.99803472  0.89442119  1
  Ti  Ti11  1  0.50164329  0.50232854  0.79130373  1
  V  V12  1  0.48956315  0.48721437  1.00253997  1
  V  V13  1  0.97507581  0.51887712  0.30218219  1
  V  V14  1  0.98335703  0.01558576  0.59815219  1
  V  V15  1  1.01245250  0.52432305  0.69641155  1
  Ni  Ni16  1  -0.00450221  1.00216481  0.20203868  1
  Ni  Ni17  1  0.50575613  1.00060696  0.50258641  1
  Ni  Ni18  1  0.50577560  0.50372242  0.40703377  1
  Ni  Ni19  1  -0.00039993  -0.00550986  0.79146506  1
  C  C20  1  -0.00295381  -0.00633188  0.11047071  1
  C  C21  1  0.00872073  0.49477971  -0.00107937  1
  C  C22  1  0.49839515  1.00619112  0.99877511  1
  C  C23  1  0.50058869  0.50010685  0.09106349  1
  C  C24  1  0.98962837  0.99217509  0.29783279  1
  C  C25  1  -0.00064830  0.47024123  0.21521248  1
  C  C26  1  0.49480565  1.00019017  0.19802055  1
  C  C27  1  0.50304416  0.51096396  0.31163741  1
  C  C28  1  1.01224655  0.99735694  0.51022512  1
  C  C29  1  0.01824411  0.49687145  0.39592109  1
  C  C30  1  0.50408200  0.00518810  0.41181671  1
  C  C31  1  0.50545200  0.50517845  0.49560119  1
  C  C32  1  1.00301500  -0.01901946  0.69597747  1
  C  C33  1  -0.00348625  0.49081207  0.60355935  1
  C  C34  1  0.50988184  0.00500048  0.59201753  1
  C  C35  1  0.49335989  0.50752112  0.69481969  1
  C  C36  1  1.00082348  -0.00325568  0.89167331  1
  C  C37  1  0.99881194  0.49411775  0.78722517  1
  C  C38  1  0.50129010  0.00147873  0.79934697  1
  C  C39  1  0.50144370  0.49997769  0.89839850  1
