# generated using pymatgen
data_HfMgScTiVC5
_symmetry_space_group_name_H-M   'P 1'
_cell_length_a   4.47994564
_cell_length_b   4.48282731
_cell_length_c   22.43972935
_cell_angle_alpha   89.92389090
_cell_angle_beta   90.01105464
_cell_angle_gamma   89.98316003
_symmetry_Int_Tables_number   1
_chemical_formula_structural   HfMgScTiVC5
_chemical_formula_sum   'Hf4 Mg4 Sc4 Ti4 V4 C20'
_cell_volume   450.65267908
_cell_formula_units_Z   4
loop_
 _symmetry_equiv_pos_site_id
 _symmetry_equiv_pos_as_xyz
  1  'x, y, z'
loop_
 _atom_site_type_symbol
 _atom_site_label
 _atom_site_symmetry_multiplicity
 _atom_site_fract_x
 _atom_site_fract_y
 _atom_site_fract_z
 _atom_site_occupancy
  Hf  Hf0  1  0.99888552  0.50124952  0.29811120  1
  Hf  Hf1  1  0.49998582  0.00062273  0.30013964  1
  Hf  Hf2  1  1.00124060  0.99480666  0.60377735  1
  Hf  Hf3  1  0.49709696  0.50081418  0.80098975  1
  Mg  Mg4  1  0.00676365  1.00773424  0.40212212  1
  Mg  Mg5  1  0.49420460  0.99213043  0.69792190  1
  Mg  Mg6  1  0.50003288  0.49466484  0.59849749  1
  Mg  Mg7  1  0.49448576  0.00965955  0.90239258  1
  Sc  Sc8  1  0.99811518  0.00653820  0.99861946  1
  Sc  Sc9  1  0.49913210  1.00384412  0.10059569  1
  Sc  Sc10  1  0.49834723  0.50528757  0.00038531  1
  Sc  Sc11  1  1.00353466  0.50040891  0.50140836  1
  Ti  Ti12  1  0.99929666  0.50328802  0.10198366  1
  Ti  Ti13  1  1.00009667  0.00061959  0.19677700  1
  Ti  Ti14  1  0.50177136  0.00304184  0.49929357  1
  Ti  Ti15  1  -0.00223023  0.00242726  0.79883014  1
  V  V16  1  0.50063071  0.51349526  0.19557058  1
  V  V17  1  0.53324337  0.53191932  0.40160197  1
  V  V18  1  0.96475240  0.47688489  0.70076071  1
  V  V19  1  -0.02894075  0.53816708  0.89973534  1
  C  C20  1  0.99928915  1.00338879  0.10341380  1
  C  C21  1  0.00127180  0.50520993  0.99291231  1
  C  C22  1  0.49762605  1.00548429  1.00108308  1
  C  C23  1  0.49863818  0.50224536  0.10886321  1
  C  C24  1  0.00046131  0.00267003  0.29399711  1
  C  C25  1  -0.00198194  0.50041649  0.19602205  1
  C  C26  1  0.50015304  0.98566753  0.20145407  1
  C  C27  1  0.49470308  0.49759002  0.30234619  1
  C  C28  1  1.00236316  1.00121947  0.50337606  1
  C  C29  1  0.95540698  0.50256589  0.39767270  1
  C  C30  1  0.50074195  0.95826294  0.40173737  1
  C  C31  1  0.49983055  0.49282928  0.48962075  1
  C  C32  1  0.00004236  0.01392136  0.70547727  1
  C  C33  1  0.00361124  0.49577921  0.61313594  1
  C  C34  1  0.50051391  0.99329070  0.59201191  1
  C  C35  1  0.55016207  0.49567097  0.70047735  1
  C  C36  1  -0.00107016  0.95375464  0.89419374  1
  C  C37  1  -0.00038711  0.49459586  0.80295366  1
  C  C38  1  0.49216811  1.00055711  0.79982321  1
  C  C39  1  0.54532093  0.50578271  0.89927038  1
