# generated using pymatgen
data_HfTiMnVCoC5
_symmetry_space_group_name_H-M   'P 1'
_cell_length_a   4.28842298
_cell_length_b   4.31935862
_cell_length_c   21.61506160
_cell_angle_alpha   90.15369235
_cell_angle_beta   89.86118272
_cell_angle_gamma   89.97206672
_symmetry_Int_Tables_number   1
_chemical_formula_structural   HfTiMnVCoC5
_chemical_formula_sum   'Hf4 Ti4 Mn4 V4 Co4 C20'
_cell_volume   400.37823917
_cell_formula_units_Z   4
loop_
 _symmetry_equiv_pos_site_id
 _symmetry_equiv_pos_as_xyz
  1  'x, y, z'
loop_
 _atom_site_type_symbol
 _atom_site_label
 _atom_site_symmetry_multiplicity
 _atom_site_fract_x
 _atom_site_fract_y
 _atom_site_fract_z
 _atom_site_occupancy
  Hf  Hf0  1  0.49646974  0.01057718  0.09717209  1
  Hf  Hf1  1  0.49943663  0.99738067  0.29978879  1
  Hf  Hf2  1  0.49388890  0.50345439  0.60549932  1
  Hf  Hf3  1  0.50783165  -0.00958165  0.89899503  1
  Ti  Ti4  1  0.49844823  0.99868234  0.50114806  1
  Ti  Ti5  1  0.49473770  0.49926535  0.39997849  1
  Ti  Ti6  1  0.99629006  1.00433439  0.60309159  1
  Ti  Ti7  1  1.00573625  0.99528056  0.80199957  1
  Mn  Mn8  1  0.97290480  -0.05295483  0.19730536  1
  Mn  Mn9  1  1.01711260  0.96708502  0.41244706  1
  Mn  Mn10  1  0.95548242  0.46513426  0.71472839  1
  Mn  Mn11  1  0.03180752  0.46486979  0.91629413  1
  V  V12  1  0.51815012  0.50619977  0.00115766  1
  V  V13  1  0.51251124  0.49713815  0.19641603  1
  V  V14  1  0.99536661  0.48669660  0.50034889  1
  V  V15  1  0.49832497  1.01380219  0.70687759  1
  Co  Co16  1  0.99162489  1.02086310  1.00173556  1
  Co  Co17  1  0.01345879  0.53110977  0.09604468  1
  Co  Co18  1  1.01724711  0.47998389  0.27551199  1
  Co  Co19  1  0.50216615  0.50586361  0.80040552  1
  C  C20  1  -0.00081322  0.98113662  0.09357226  1
  C  C21  1  0.99931922  0.48964872  0.00088169  1
  C  C22  1  0.52538856  -0.00304012  -0.00129308  1
  C  C23  1  0.47894110  0.50639106  0.09627501  1
  C  C24  1  0.00393685  0.01369338  0.28322520  1
  C  C25  1  1.01208526  0.51677283  0.18947564  1
  C  C26  1  0.53338005  1.00284090  0.19656179  1
  C  C27  1  0.49041366  0.49751470  0.29390936  1
  C  C28  1  0.99684516  0.00712230  0.49879770  1
  C  C29  1  -0.00601675  0.54165121  0.40474503  1
  C  C30  1  0.47869505  0.00441747  0.40284254  1
  C  C31  1  0.49866595  0.49627264  0.49898845  1
  C  C32  1  0.00801422  0.03169589  0.70270122  1
  C  C33  1  0.99455051  0.50782832  0.59604337  1
  C  C34  1  0.49647396  0.00145885  0.60517159  1
  C  C35  1  0.51727840  0.50637256  0.70988761  1
  C  C36  1  0.00471575  1.03222022  0.90474676  1
  C  C37  1  -0.01633428  0.50179632  0.79986407  1
  C  C38  1  0.49969256  0.98509665  0.79663962  1
  C  C39  1  0.46588038  0.49610769  0.90074499  1
