# generated using pymatgen
data_HfTiMnVNiC5
_symmetry_space_group_name_H-M   'P 1'
_cell_length_a   4.34201723
_cell_length_b   4.34977204
_cell_length_c   21.12445720
_cell_angle_alpha   90.04642816
_cell_angle_beta   90.10967039
_cell_angle_gamma   90.04074435
_symmetry_Int_Tables_number   1
_chemical_formula_structural   HfTiMnVNiC5
_chemical_formula_sum   'Hf4 Ti4 Mn4 V4 Ni4 C20'
_cell_volume   398.97212115
_cell_formula_units_Z   4
loop_
 _symmetry_equiv_pos_site_id
 _symmetry_equiv_pos_as_xyz
  1  'x, y, z'
loop_
 _atom_site_type_symbol
 _atom_site_label
 _atom_site_symmetry_multiplicity
 _atom_site_fract_x
 _atom_site_fract_y
 _atom_site_fract_z
 _atom_site_occupancy
  Hf  Hf0  1  0.50608283  -0.00822190  0.30164341  1
  Hf  Hf1  1  1.00927115  0.49554676  0.49987376  1
  Hf  Hf2  1  0.99020596  0.51930529  0.70184250  1
  Hf  Hf3  1  0.49091347  0.98832780  0.89721094  1
  Ti  Ti4  1  1.00415366  0.50400738  0.09968399  1
  Ti  Ti5  1  0.00829925  0.49492833  0.29804423  1
  Ti  Ti6  1  0.50515191  0.49225803  0.40258654  1
  Ti  Ti7  1  -0.01183729  0.49409815  0.90140246  1
  Mn  Mn8  1  0.45332597  0.45768872  1.00245079  1
  Mn  Mn9  1  0.54726705  0.46212896  0.19571605  1
  Mn  Mn10  1  0.45429580  0.05201628  0.69699113  1
  Mn  Mn11  1  0.53423626  0.56876886  0.60065104  1
  V  V12  1  0.99412261  1.00587213  1.00502600  1
  V  V13  1  0.50677603  0.99088255  0.09880029  1
  V  V14  1  1.00535797  0.01040425  0.19521739  1
  V  V15  1  -0.02309125  1.01050092  0.79811241  1
  Ni  Ni16  1  0.00489802  0.99468586  0.40249207  1
  Ni  Ni17  1  0.50730740  -0.00499053  0.50348271  1
  Ni  Ni18  1  1.00160834  1.00105532  0.59840877  1
  Ni  Ni19  1  0.49856778  0.47170165  0.79858389  1
  C  C20  1  -0.00064081  -0.00125095  0.09987634  1
  C  C21  1  0.02416884  0.49952276  1.00180371  1
  C  C22  1  0.50460587  1.02827235  1.00539109  1
  C  C23  1  0.50199428  0.51531412  0.09983084  1
  C  C24  1  0.00626833  0.99359233  0.29532605  1
  C  C25  1  0.97570214  0.50226868  0.19740411  1
  C  C26  1  0.49477564  0.03365375  0.19264334  1
  C  C27  1  0.50369141  0.49449441  0.29414867  1
  C  C28  1  0.01276295  0.99809195  0.50199723  1
  C  C29  1  0.00415617  0.49580611  0.39504536  1
  C  C30  1  0.50665432  -0.00650785  0.40950879  1
  C  C31  1  0.50576980  0.49620553  0.50861394  1
  C  C32  1  0.02649212  1.01423217  0.70050497  1
  C  C33  1  0.95979326  0.51492107  0.60078979  1
  C  C34  1  0.50373734  -0.02087290  0.60507385  1
  C  C35  1  0.49010720  0.47601454  0.69370498  1
  C  C36  1  0.99210814  -0.00951264  0.90002933  1
  C  C37  1  0.99277153  0.49250297  0.80505119  1
  C  C38  1  0.51434635  -0.00993938  0.78849116  1
  C  C39  1  0.49403113  0.49094764  0.90641840  1
