# generated using pymatgen
data_HfScTiMnVC5
_symmetry_space_group_name_H-M   'P 1'
_cell_length_a   4.40967340
_cell_length_b   4.42711114
_cell_length_c   22.07981565
_cell_angle_alpha   89.89225065
_cell_angle_beta   89.95788962
_cell_angle_gamma   90.02630756
_symmetry_Int_Tables_number   1
_chemical_formula_structural   HfScTiMnVC5
_chemical_formula_sum   'Hf4 Sc4 Ti4 Mn4 V4 C20'
_cell_volume   431.04375937
_cell_formula_units_Z   4
loop_
 _symmetry_equiv_pos_site_id
 _symmetry_equiv_pos_as_xyz
  1  'x, y, z'
loop_
 _atom_site_type_symbol
 _atom_site_label
 _atom_site_symmetry_multiplicity
 _atom_site_fract_x
 _atom_site_fract_y
 _atom_site_fract_z
 _atom_site_occupancy
  Hf  Hf0  1  0.00137125  0.50274061  0.29923544  1
  Hf  Hf1  1  1.00079782  0.99441019  0.59914938  1
  Hf  Hf2  1  0.00178095  0.49345965  0.70507047  1
  Hf  Hf3  1  -0.00059823  -0.00277758  0.80545663  1
  Sc  Sc4  1  -0.00096765  1.00350109  0.19462077  1
  Sc  Sc5  1  0.50085430  0.50156824  0.19245319  1
  Sc  Sc6  1  0.50395046  0.51537571  0.40283760  1
  Sc  Sc7  1  0.50158107  0.49440394  0.60262193  1
  Ti  Ti8  1  1.00006433  0.00404332  -0.00287344  1
  Ti  Ti9  1  0.00398768  0.50178008  0.09277743  1
  Ti  Ti10  1  1.00391116  0.00583117  0.40370586  1
  Ti  Ti11  1  0.49480480  1.00049944  0.90179027  1
  Mn  Mn12  1  0.54754365  0.45931067  -0.00260818  1
  Mn  Mn13  1  0.53111740  0.03436459  0.31445318  1
  Mn  Mn14  1  0.46660420  0.03789197  0.49261226  1
  Mn  Mn15  1  0.52884790  0.95898683  0.70430111  1
  V  V16  1  0.48853294  -0.01847115  0.09093501  1
  V  V17  1  0.01121447  0.48123111  0.49900135  1
  V  V18  1  -0.01937813  0.50878090  0.90360535  1
  V  V19  1  0.49445406  0.49256213  0.80867052  1
  C  C20  1  0.01088651  -0.00205363  0.09044965  1
  C  C21  1  0.97533072  0.50318219  -0.00575190  1
  C  C22  1  0.49970856  0.03936375  0.99624478  1
  C  C23  1  0.49948327  0.51382743  0.08281620  1
  C  C24  1  -0.04236233  -0.00148262  0.30483124  1
  C  C25  1  0.00119219  0.50445202  0.19203716  1
  C  C26  1  0.50130736  0.00506830  0.17564700  1
  C  C27  1  0.49868333  0.45374062  0.29898905  1
  C  C28  1  1.03361147  0.99961052  0.49801343  1
  C  C29  1  0.00339114  0.51014675  0.40664443  1
  C  C30  1  0.50201047  0.01256392  0.39985142  1
  C  C31  1  0.50175040  0.45326683  0.50163479  1
  C  C32  1  0.96100153  0.99767266  0.70376663  1
  C  C33  1  1.00074928  0.49551938  0.59768286  1
  C  C34  1  0.49618060  0.99668016  0.61820741  1
  C  C35  1  0.49806672  0.54118622  0.71411800  1
  C  C36  1  0.99739178  -0.00925056  0.90395829  1
  C  C37  1  0.00326639  0.49718183  0.80987533  1
  C  C38  1  0.49722471  1.01679451  0.80176088  1
  C  C39  1  0.50216450  0.50435749  0.90130485  1
