# generated using pymatgen
data_HfScTiVNiC5
_symmetry_space_group_name_H-M   'P 1'
_cell_length_a   4.41175463
_cell_length_b   4.42121532
_cell_length_c   21.86776524
_cell_angle_alpha   89.96552179
_cell_angle_beta   90.03978096
_cell_angle_gamma   90.02267657
_symmetry_Int_Tables_number   1
_chemical_formula_structural   HfScTiVNiC5
_chemical_formula_sum   'Hf4 Sc4 Ti4 V4 Ni4 C20'
_cell_volume   426.53748322
_cell_formula_units_Z   4
loop_
 _symmetry_equiv_pos_site_id
 _symmetry_equiv_pos_as_xyz
  1  'x, y, z'
loop_
 _atom_site_type_symbol
 _atom_site_label
 _atom_site_symmetry_multiplicity
 _atom_site_fract_x
 _atom_site_fract_y
 _atom_site_fract_z
 _atom_site_occupancy
  Hf  Hf0  1  0.50141702  0.50276009  1.01080973  1
  Hf  Hf1  1  -0.00004145  1.00107220  0.59210548  1
  Hf  Hf2  1  0.49980963  0.50104610  0.59105018  1
  Hf  Hf3  1  0.50051268  0.50233998  0.80797099  1
  Sc  Sc4  1  0.00836753  0.00180315  1.01061659  1
  Sc  Sc5  1  -0.00124048  0.00399520  0.39004628  1
  Sc  Sc6  1  1.00012181  0.50104232  0.70026175  1
  Sc  Sc7  1  0.00450497  1.00097861  0.80676376  1
  Ti  Ti8  1  0.49846952  1.00153468  0.29207568  1
  Ti  Ti9  1  0.49948002  1.00137577  0.48783384  1
  Ti  Ti10  1  0.49778354  0.50285861  0.39121096  1
  Ti  Ti11  1  0.50077179  1.00197350  0.70069641  1
  V  V12  1  0.52069903  0.99749509  0.10980930  1
  V  V13  1  1.00881651  0.96860582  0.19920702  1
  V  V14  1  0.51885341  0.49848514  0.20014994  1
  V  V15  1  0.53679941  0.01901902  0.90890064  1
  Ni  Ni16  1  -0.00985351  0.49773138  0.10729210  1
  Ni  Ni17  1  -0.00525124  0.49850150  0.29359319  1
  Ni  Ni18  1  1.00228976  0.50309068  0.48793004  1
  Ni  Ni19  1  -0.01353288  0.48847951  0.90954318  1
  C  C20  1  0.98570842  0.01004080  0.11168624  1
  C  C21  1  1.00181483  0.50164777  1.00849636  1
  C  C22  1  0.50583563  1.00041244  0.00822540  1
  C  C23  1  0.50139396  0.49978112  0.11155325  1
  C  C24  1  0.99633898  1.01278985  0.28694458  1
  C  C25  1  -0.00726805  0.50916386  0.20082733  1
  C  C26  1  0.49725891  -0.00545986  0.19751556  1
  C  C27  1  0.49722405  0.50123066  0.29187810  1
  C  C28  1  -0.00080521  0.99722542  0.49166727  1
  C  C29  1  -0.00205324  0.50354831  0.39065824  1
  C  C30  1  0.49869294  1.00118126  0.39101150  1
  C  C31  1  0.49635460  0.49961087  0.48693965  1
  C  C32  1  1.00049661  0.00076302  0.69922214  1
  C  C33  1  0.99965484  0.50088580  0.58659089  1
  C  C34  1  0.50007761  1.00112462  0.59606110  1
  C  C35  1  0.50010484  0.50006032  0.70010050  1
  C  C36  1  -0.04526599  0.99837766  0.90884650  1
  C  C37  1  1.00074427  0.50069381  0.81261156  1
  C  C38  1  0.50277226  1.00035728  0.81167874  1
  C  C39  1  0.50096402  0.47081500  0.90893565  1
