# generated using pymatgen
data_HfTiCoNiWC5
_symmetry_space_group_name_H-M   'P 1'
_cell_length_a   4.37898390
_cell_length_b   4.37904625
_cell_length_c   21.38278799
_cell_angle_alpha   89.82855332
_cell_angle_beta   89.94178505
_cell_angle_gamma   89.98048609
_symmetry_Int_Tables_number   1
_chemical_formula_structural   HfTiCoNiWC5
_chemical_formula_sum   'Hf4 Ti4 Co4 Ni4 W4 C20'
_cell_volume   410.02941828
_cell_formula_units_Z   4
loop_
 _symmetry_equiv_pos_site_id
 _symmetry_equiv_pos_as_xyz
  1  'x, y, z'
loop_
 _atom_site_type_symbol
 _atom_site_label
 _atom_site_symmetry_multiplicity
 _atom_site_fract_x
 _atom_site_fract_y
 _atom_site_fract_z
 _atom_site_occupancy
  Hf  Hf0  1  1.00600181  0.50706406  0.49212687  1
  Hf  Hf1  1  0.50057681  0.00243883  0.49342592  1
  Hf  Hf2  1  0.00505761  0.49934281  0.70966334  1
  Hf  Hf3  1  0.50221784  0.99737445  0.70771481  1
  Ti  Ti4  1  0.48327736  0.50123834  1.00354572  1
  Ti  Ti5  1  -0.00435492  -0.00790286  0.19446959  1
  Ti  Ti6  1  0.00145415  0.99507253  0.81551873  1
  Ti  Ti7  1  0.50028719  1.00383462  0.90895828  1
  Co  Co8  1  0.96838065  0.45907510  0.09290829  1
  Co  Co9  1  0.04333838  0.44887238  0.29066536  1
  Co  Co10  1  0.44351990  0.46758956  0.19460758  1
  Co  Co11  1  -0.04030840  0.46190219  0.91059639  1
  Ni  Ni12  1  -0.00170951  0.02205199  1.00451687  1
  Ni  Ni13  1  0.99558748  0.01677813  0.39060302  1
  Ni  Ni14  1  -0.00093462  1.00264199  0.59626911  1
  Ni  Ni15  1  0.50570783  0.50379117  0.81729429  1
  W  W16  1  0.49639474  -0.02345171  0.09948065  1
  W  W17  1  0.52141471  0.98718311  0.29187611  1
  W  W18  1  0.53253034  0.49164433  0.38268141  1
  W  W19  1  0.52215340  0.48596416  0.60110533  1
  C  C20  1  -0.00208176  0.01991550  0.09640364  1
  C  C21  1  0.98919529  0.50214696  1.00525648  1
  C  C22  1  0.48918060  0.00152710  0.00598818  1
  C  C23  1  0.51855010  0.50141095  0.10721453  1
  C  C24  1  1.00112668  0.02719536  0.29462951  1
  C  C25  1  0.02548301  0.50256208  0.19569991  1
  C  C26  1  0.49563402  1.02921610  0.19621712  1
  C  C27  1  0.48236850  0.50550650  0.28495562  1
  C  C28  1  0.99962804  1.00752710  0.49193701  1
  C  C29  1  0.00170347  0.51341465  0.38042595  1
  C  C30  1  0.49663281  0.00754802  0.38774650  1
  C  C31  1  0.50316232  0.50508199  0.49020149  1
  C  C32  1  1.00245467  0.00015121  0.71242522  1
  C  C33  1  0.99273175  0.51022243  0.59913838  1
  C  C34  1  0.49170861  0.01056420  0.59895351  1
  C  C35  1  0.50440564  0.49789461  0.69975070  1
  C  C36  1  0.00081680  0.03696781  0.91410940  1
  C  C37  1  0.00200778  0.49907459  0.82098078  1
  C  C38  1  0.49996354  -0.00699669  0.81213207  1
  C  C39  1  0.52711428  0.50649126  0.90732876  1
