# generated using pymatgen
data_HfScTiCoWC5
_symmetry_space_group_name_H-M   'P 1'
_cell_length_a   4.47520233
_cell_length_b   4.48683354
_cell_length_c   21.71697786
_cell_angle_alpha   90.03346759
_cell_angle_beta   90.18938714
_cell_angle_gamma   89.98260637
_symmetry_Int_Tables_number   1
_chemical_formula_structural   HfScTiCoWC5
_chemical_formula_sum   'Hf4 Sc4 Ti4 Co4 W4 C20'
_cell_volume   436.06331829
_cell_formula_units_Z   4
loop_
 _symmetry_equiv_pos_site_id
 _symmetry_equiv_pos_as_xyz
  1  'x, y, z'
loop_
 _atom_site_type_symbol
 _atom_site_label
 _atom_site_symmetry_multiplicity
 _atom_site_fract_x
 _atom_site_fract_y
 _atom_site_fract_z
 _atom_site_occupancy
  Hf  Hf0  1  0.49546205  0.50556603  0.39434313  1
  Hf  Hf1  1  0.00002118  1.00178158  0.60001214  1
  Hf  Hf2  1  0.00264397  0.50271531  0.70910975  1
  Hf  Hf3  1  0.50979323  0.02510005  0.91353433  1
  Sc  Sc4  1  0.98514220  -0.02188961  0.18916337  1
  Sc  Sc5  1  -0.00205372  0.50453887  0.49684339  1
  Sc  Sc6  1  0.50214381  1.00225531  0.70642609  1
  Sc  Sc7  1  1.00475219  1.01062797  0.81038566  1
  Ti  Ti8  1  -0.01908139  0.49573245  0.09271093  1
  Ti  Ti9  1  0.49641573  0.98965034  0.28928823  1
  Ti  Ti10  1  0.49694678  0.00557929  0.49665106  1
  Ti  Ti11  1  0.49986484  0.50167851  0.60021815  1
  Co  Co12  1  0.05261803  0.01963789  0.00656982  1
  Co  Co13  1  0.46329059  0.94502639  0.09906129  1
  Co  Co14  1  0.45691970  0.53676273  0.00314025  1
  Co  Co15  1  0.47949898  0.47376286  0.80765746  1
  W  W16  1  0.01385797  0.46624026  0.28952498  1
  W  W17  1  0.48392914  0.45833563  0.18709045  1
  W  W18  1  -0.01645124  0.01111632  0.39435329  1
  W  W19  1  -0.00932724  0.53109032  0.91002003  1
  C  C20  1  0.01300765  0.99098954  0.08926389  1
  C  C21  1  1.04908185  0.44834055  1.00105349  1
  C  C22  1  0.47363936  -0.03587730  1.01491503  1
  C  C23  1  0.50277880  0.52826978  0.09430469  1
  C  C24  1  0.00001782  -0.00607273  0.29475001  1
  C  C25  1  -0.00879436  0.48171796  0.19262593  1
  C  C26  1  0.48921833  -0.01181702  0.18818689  1
  C  C27  1  0.49395571  0.50096612  0.28751114  1
  C  C28  1  1.00216021  1.00241592  0.49001000  1
  C  C29  1  -0.00461490  0.50645109  0.38782349  1
  C  C30  1  0.50325742  0.00367628  0.39228222  1
  C  C31  1  0.49794951  0.50046333  0.50074068  1
  C  C32  1  0.00107382  0.00256279  0.70394239  1
  C  C33  1  0.99959258  0.50147914  0.60386076  1
  C  C34  1  0.50007997  0.99994780  0.59452369  1
  C  C35  1  0.50283783  0.50382273  0.71262209  1
  C  C36  1  0.00490811  0.01123850  0.91809061  1
  C  C37  1  0.05855172  0.51161656  0.81625030  1
  C  C38  1  0.50708439  0.07116089  0.81038998  1
  C  C39  1  0.51900122  0.52210166  0.91036782  1
