# generated using pymatgen
data_HfTiCrCoWC5
_symmetry_space_group_name_H-M   'P 1'
_cell_length_a   4.35596273
_cell_length_b   4.35941359
_cell_length_c   21.38555408
_cell_angle_alpha   90.00371517
_cell_angle_beta   90.06184327
_cell_angle_gamma   90.01069751
_symmetry_Int_Tables_number   1
_chemical_formula_structural   HfTiCrCoWC5
_chemical_formula_sum   'Hf4 Ti4 Cr4 Co4 W4 C20'
_cell_volume   406.09951786
_cell_formula_units_Z   4
loop_
 _symmetry_equiv_pos_site_id
 _symmetry_equiv_pos_as_xyz
  1  'x, y, z'
loop_
 _atom_site_type_symbol
 _atom_site_label
 _atom_site_symmetry_multiplicity
 _atom_site_fract_x
 _atom_site_fract_y
 _atom_site_fract_z
 _atom_site_occupancy
  Hf  Hf0  1  0.99832863  0.49796380  0.09789351  1
  Hf  Hf1  1  0.49822954  0.49798238  -0.01759030  1
  Hf  Hf2  1  0.99723875  0.00301340  0.20815971  1
  Hf  Hf3  1  0.99973658  0.00532887  0.40830562  1
  Ti  Ti4  1  0.49919065  0.99674134  0.50874381  1
  Ti  Ti5  1  0.49610732  0.50042608  0.40762040  1
  Ti  Ti6  1  0.00044439  0.98191544  0.79130121  1
  Ti  Ti7  1  0.49927937  -0.00171988  0.88238707  1
  Cr  Cr8  1  0.96797233  0.52404864  0.31077141  1
  Cr  Cr9  1  1.02589246  0.47386031  0.69993730  1
  Cr  Cr10  1  0.51813894  0.04904117  0.69875567  1
  Cr  Cr11  1  0.52992717  0.51066018  0.60682893  1
  Co  Co12  1  0.51319119  -0.00606252  0.31113455  1
  Co  Co13  1  0.95074879  0.51335667  0.50973438  1
  Co  Co14  1  0.99160629  0.48171306  0.87760545  1
  Co  Co15  1  0.49674718  0.50454318  0.78965758  1
  W  W16  1  0.99699950  -0.00009152  0.98268562  1
  W  W17  1  0.49098859  0.99037247  0.09667928  1
  W  W18  1  0.49311162  0.50246049  0.21738791  1
  W  W19  1  0.01935641  0.03477092  0.60454818  1
  C  C20  1  0.00496529  -0.00115914  0.09315139  1
  C  C21  1  -0.00218904  0.49470332  0.98814120  1
  C  C22  1  0.49988568  0.99754439  0.99370510  1
  C  C23  1  0.50082122  0.50071178  0.10543504  1
  C  C24  1  0.98722321  0.98418365  0.30754916  1
  C  C25  1  -0.00066819  0.50168700  0.21239477  1
  C  C26  1  0.49880918  1.00130012  0.20435625  1
  C  C27  1  0.50797954  0.48436256  0.30928421  1
  C  C28  1  0.00064634  -0.01832271  0.51119883  1
  C  C29  1  0.99757498  0.50392648  0.40836064  1
  C  C30  1  0.49776331  0.99884984  0.40536672  1
  C  C31  1  0.53026146  0.49523631  0.51141830  1
  C  C32  1  0.98962865  0.00496120  0.69829579  1
  C  C33  1  -0.00546803  0.51296873  0.60347610  1
  C  C34  1  0.50443399  0.99049980  0.60788197  1
  C  C35  1  0.49133453  0.50362845  0.70042456  1
  C  C36  1  0.00038478  0.00347219  0.89030152  1
  C  C37  1  1.00604650  0.49189109  0.79212126  1
  C  C38  1  0.50020442  0.99156019  0.78737448  1
  C  C39  1  0.50525793  0.49747022  0.87710623  1
