# generated using pymatgen
data_HfTiCrMoWC5
_symmetry_space_group_name_H-M   'P 1'
_cell_length_a   4.39518207
_cell_length_b   4.40371169
_cell_length_c   21.70236657
_cell_angle_alpha   89.88397325
_cell_angle_beta   89.91434698
_cell_angle_gamma   90.03005283
_symmetry_Int_Tables_number   1
_chemical_formula_structural   HfTiCrMoWC5
_chemical_formula_sum   'Hf4 Ti4 Cr4 Mo4 W4 C20'
_cell_volume   420.05040434
_cell_formula_units_Z   4
loop_
 _symmetry_equiv_pos_site_id
 _symmetry_equiv_pos_as_xyz
  1  'x, y, z'
loop_
 _atom_site_type_symbol
 _atom_site_label
 _atom_site_symmetry_multiplicity
 _atom_site_fract_x
 _atom_site_fract_y
 _atom_site_fract_z
 _atom_site_occupancy
  Hf  Hf0  1  0.00122596  -0.00440250  1.00529100  1
  Hf  Hf1  1  0.49966537  0.49695694  1.00241115  1
  Hf  Hf2  1  0.51181716  0.00565611  0.49498761  1
  Hf  Hf3  1  0.99523851  0.50442207  0.69785097  1
  Ti  Ti4  1  0.49921069  0.99352558  0.11031287  1
  Ti  Ti5  1  1.00030510  -0.00362376  0.39410478  1
  Ti  Ti6  1  0.99612957  0.00368537  0.60006791  1
  Ti  Ti7  1  0.49965817  0.50635026  0.79564072  1
  Cr  Cr8  1  0.98152016  0.03919451  0.20509644  1
  Cr  Cr9  1  0.49114253  -0.02708986  0.30057387  1
  Cr  Cr10  1  0.47477353  0.52176202  0.39318542  1
  Cr  Cr11  1  0.48967374  0.01400008  0.69769955  1
  Mo  Mo12  1  0.99048648  0.48942375  0.11332820  1
  Mo  Mo13  1  0.50489540  0.49134168  0.60001064  1
  Mo  Mo14  1  0.02458665  -0.00622904  0.79997927  1
  Mo  Mo15  1  0.00136553  0.47987144  0.89476056  1
  W  W16  1  0.97395009  0.48602934  0.30350533  1
  W  W17  1  0.49320924  0.46773243  0.20573656  1
  W  W18  1  0.03525586  0.51114083  0.49690146  1
  W  W19  1  0.51383153  0.98963601  0.89266527  1
  C  C20  1  1.00168808  0.00205233  0.11223664  1
  C  C21  1  1.00012650  0.49632937  0.00295990  1
  C  C22  1  0.50100531  -0.00203074  0.99949364  1
  C  C23  1  0.50315432  0.50178261  0.10814875  1
  C  C24  1  0.00406518  0.00095195  0.29658670  1
  C  C25  1  0.00588657  0.50844503  0.20656471  1
  C  C26  1  0.51042295  -0.00594089  0.20845900  1
  C  C27  1  0.49379624  0.50865911  0.30278499  1
  C  C28  1  0.00878612  0.99908759  0.49731567  1
  C  C29  1  0.00318369  0.49687776  0.39771242  1
  C  C30  1  0.49901620  0.99224417  0.39089279  1
  C  C31  1  0.50899721  0.50373045  0.49100007  1
  C  C32  1  1.00124740  0.00386690  0.69912680  1
  C  C33  1  0.98997568  0.50325626  0.59281034  1
  C  C34  1  0.49629317  0.00541243  0.60498392  1
  C  C35  1  0.49546432  0.49563087  0.69658495  1
  C  C36  1  -0.00142074  0.00446694  0.89855445  1
  C  C37  1  0.99811882  0.50962420  0.80089524  1
  C  C38  1  0.49993309  1.00841428  0.79331858  1
  C  C39  1  0.49988910  0.50919089  0.89600100  1
