# generated using pymatgen
data_HfTiMnCrWC5
_symmetry_space_group_name_H-M   'P 1'
_cell_length_a   4.36068014
_cell_length_b   4.38418189
_cell_length_c   21.58812774
_cell_angle_alpha   90.14070617
_cell_angle_beta   90.11591453
_cell_angle_gamma   90.06992776
_symmetry_Int_Tables_number   1
_chemical_formula_structural   HfTiMnCrWC5
_chemical_formula_sum   'Hf4 Ti4 Mn4 Cr4 W4 C20'
_cell_volume   412.71974906
_cell_formula_units_Z   4
loop_
 _symmetry_equiv_pos_site_id
 _symmetry_equiv_pos_as_xyz
  1  'x, y, z'
loop_
 _atom_site_type_symbol
 _atom_site_label
 _atom_site_symmetry_multiplicity
 _atom_site_fract_x
 _atom_site_fract_y
 _atom_site_fract_z
 _atom_site_occupancy
  Hf  Hf0  1  -0.01921979  0.49001124  0.29732557  1
  Hf  Hf1  1  0.50667186  0.50411682  0.59722776  1
  Hf  Hf2  1  -0.00184457  -0.00505052  0.80372223  1
  Hf  Hf3  1  0.49768221  0.49616116  0.80348923  1
  Ti  Ti4  1  0.50813244  0.00633859  0.09783304  1
  Ti  Ti5  1  0.50222163  1.00500284  0.49684885  1
  Ti  Ti6  1  0.49579121  -0.00454477  0.69732127  1
  Ti  Ti7  1  0.49726336  1.00175261  0.90700798  1
  Mn  Mn8  1  0.52715535  0.54189604  0.18673366  1
  Mn  Mn9  1  1.03129561  0.03795137  0.40734382  1
  Mn  Mn10  1  0.00858486  1.01607570  0.59919508  1
  Mn  Mn11  1  1.02885254  0.44934706  0.69094551  1
  Cr  Cr12  1  0.98784873  0.03767720  0.00170797  1
  Cr  Cr13  1  1.02071160  0.47428197  0.09788342  1
  Cr  Cr14  1  0.46818830  0.46774980  0.39891772  1
  Cr  Cr15  1  0.00986362  0.48334481  0.90927544  1
  W  W16  1  0.53336335  0.51250991  1.00150882  1
  W  W17  1  0.02301690  0.00019037  0.19161104  1
  W  W18  1  0.47391169  -0.02245428  0.30611089  1
  W  W19  1  0.99983251  0.52748111  0.49573402  1
  C  C20  1  1.00567107  0.01039656  0.09489160  1
  C  C21  1  1.01094241  0.49838957  0.00394111  1
  C  C22  1  0.51072947  1.00056785  1.00313155  1
  C  C23  1  0.49257174  0.50564448  0.10077342  1
  C  C24  1  -0.01445519  0.99100957  0.29755867  1
  C  C25  1  0.98387732  0.48970138  0.19052607  1
  C  C26  1  0.49995675  -0.02614672  0.19961104  1
  C  C27  1  0.48507560  0.49221257  0.30384724  1
  C  C28  1  0.99940240  1.00465583  0.50093473  1
  C  C29  1  -0.00152042  0.47601610  0.40197024  1
  C  C30  1  0.48270897  1.00476465  0.39907100  1
  C  C31  1  0.50293823  0.50526385  0.49203139  1
  C  C32  1  0.99419927  0.02515067  0.69324624  1
  C  C33  1  0.00396425  0.49333042  0.60093916  1
  C  C34  1  0.49538258  0.00361428  0.59686394  1
  C  C35  1  0.46843262  0.49854556  0.69972038  1
  C  C36  1  0.99790581  1.01317287  0.91059133  1
  C  C37  1  0.99766559  0.49582451  0.81247931  1
  C  C38  1  0.49876941  -0.00412239  0.80139236  1
  C  C39  1  0.48603832  0.50219283  0.90859639  1
