# generated using pymatgen
data_HfMgTiCrWC5
_symmetry_space_group_name_H-M   'P 1'
_cell_length_a   4.41893618
_cell_length_b   4.44645584
_cell_length_c   21.69404121
_cell_angle_alpha   90.07171045
_cell_angle_beta   89.87665824
_cell_angle_gamma   89.91543613
_symmetry_Int_Tables_number   1
_chemical_formula_structural   HfMgTiCrWC5
_chemical_formula_sum   'Hf4 Mg4 Ti4 Cr4 W4 C20'
_cell_volume   426.25585035
_cell_formula_units_Z   4
loop_
 _symmetry_equiv_pos_site_id
 _symmetry_equiv_pos_as_xyz
  1  'x, y, z'
loop_
 _atom_site_type_symbol
 _atom_site_label
 _atom_site_symmetry_multiplicity
 _atom_site_fract_x
 _atom_site_fract_y
 _atom_site_fract_z
 _atom_site_occupancy
  Hf  Hf0  1  1.01226744  0.49543935  0.09522786  1
  Hf  Hf1  1  1.01083206  0.49440158  0.30013765  1
  Hf  Hf2  1  0.51118077  0.99458856  0.29738242  1
  Hf  Hf3  1  1.01095601  -0.00518170  0.40857772  1
  Mg  Mg4  1  1.01234211  0.99463095  0.19417719  1
  Mg  Mg5  1  0.50870159  0.49811269  0.40338447  1
  Mg  Mg6  1  0.49270779  0.49816438  0.60322656  1
  Mg  Mg7  1  0.98628007  0.50993905  0.89297037  1
  Ti  Ti8  1  0.50985405  0.49174342  0.19286741  1
  Ti  Ti9  1  1.00352938  0.48920818  0.50609506  1
  Ti  Ti10  1  0.98552596  0.00652836  0.80076760  1
  Ti  Ti11  1  0.49143950  0.50789393  0.79903812  1
  Cr  Cr12  1  0.97376602  0.98401042  -0.00474410  1
  Cr  Cr13  1  0.53292346  0.00386567  0.09540222  1
  Cr  Cr14  1  0.51405943  0.03364580  0.50504474  1
  Cr  Cr15  1  1.01471888  0.48372529  0.70264487  1
  W  W16  1  0.51606495  0.54091168  0.99536639  1
  W  W17  1  0.97578938  0.97501281  0.60454781  1
  W  W18  1  0.46724153  0.01465702  0.69897655  1
  W  W19  1  0.46612264  0.02615435  0.90265300  1
  C  C20  1  0.99233528  -0.00202256  0.08581239  1
  C  C21  1  -0.00595231  0.52309729  0.99258021  1
  C  C22  1  0.50457996  0.01113888  -0.00011588  1
  C  C23  1  0.50918072  0.49007912  0.09252674  1
  C  C24  1  1.01117268  0.99430715  0.30313161  1
  C  C25  1  0.01236033  0.49600953  0.19665673  1
  C  C26  1  0.51142223  0.99731541  0.18595580  1
  C  C27  1  0.51097196  0.49465102  0.29361016  1
  C  C28  1  0.00391920  -0.00754720  0.51162513  1
  C  C29  1  1.00832266  0.49625388  0.40945727  1
  C  C30  1  0.51058514  -0.00327774  0.41199732  1
  C  C31  1  0.50371722  0.45225582  0.50612571  1
  C  C32  1  -0.01038306  0.01324631  0.70289829  1
  C  C33  1  0.99428619  0.50075289  0.61030924  1
  C  C34  1  0.49675319  -0.00508476  0.60346445  1
  C  C35  1  0.48187304  0.49556912  0.70413513  1
  C  C36  1  -0.00939602  1.00785671  0.90152085  1
  C  C37  1  0.99064637  0.50561340  0.79291371  1
  C  C38  1  0.49462086  1.00132983  0.80230118  1
  C  C39  1  0.48708416  0.50070719  0.89903569  1
