# generated using pymatgen
data_HfTiCrNiWC5
_symmetry_space_group_name_H-M   'P 1'
_cell_length_a   4.34400724
_cell_length_b   4.35836220
_cell_length_c   21.65133276
_cell_angle_alpha   90.03221114
_cell_angle_beta   89.99224291
_cell_angle_gamma   90.01903190
_symmetry_Int_Tables_number   1
_chemical_formula_structural   HfTiCrNiWC5
_chemical_formula_sum   'Hf4 Ti4 Cr4 Ni4 W4 C20'
_cell_volume   409.91932952
_cell_formula_units_Z   4
loop_
 _symmetry_equiv_pos_site_id
 _symmetry_equiv_pos_as_xyz
  1  'x, y, z'
loop_
 _atom_site_type_symbol
 _atom_site_label
 _atom_site_symmetry_multiplicity
 _atom_site_fract_x
 _atom_site_fract_y
 _atom_site_fract_z
 _atom_site_occupancy
  Hf  Hf0  1  0.50708294  0.00804186  0.10891271  1
  Hf  Hf1  1  0.49869759  -0.00321486  0.69132581  1
  Hf  Hf2  1  0.50256858  1.00328470  0.90283796  1
  Hf  Hf3  1  0.49986857  0.49812116  0.79622418  1
  Ti  Ti4  1  0.50045581  0.50029724  0.20758594  1
  Ti  Ti5  1  0.50096681  0.99871059  0.49619945  1
  Ti  Ti6  1  -0.00084486  0.49588826  0.68856805  1
  Ti  Ti7  1  0.50116126  0.49576178  0.58933032  1
  Cr  Cr8  1  0.99311375  0.52626779  0.10759358  1
  Cr  Cr9  1  1.02349023  -0.03909609  0.20718999  1
  Cr  Cr10  1  0.45582995  0.02859177  0.30019153  1
  Cr  Cr11  1  0.01408456  0.52423643  0.49924103  1
  Ni  Ni12  1  0.99956584  0.01358864  1.00948977  1
  Ni  Ni13  1  1.00180584  0.47743347  0.29001196  1
  Ni  Ni14  1  0.99840579  -0.00844437  0.59199846  1
  Ni  Ni15  1  0.00004420  0.99675858  0.79277278  1
  W  W16  1  0.45812296  0.51628705  0.00884496  1
  W  W17  1  0.00894273  0.03049853  0.39395631  1
  W  W18  1  0.53421622  0.51550952  0.39471601  1
  W  W19  1  0.99920576  0.51245785  0.90181294  1
  C  C20  1  0.00552815  0.98801985  0.11278504  1
  C  C21  1  0.99032330  0.48077800  0.01252637  1
  C  C22  1  0.49585303  -0.00413749  1.00697445  1
  C  C23  1  0.51105570  0.50463510  0.10599442  1
  C  C24  1  -0.00291696  0.99133673  0.29812486  1
  C  C25  1  -0.00075032  0.50494846  0.19972287  1
  C  C26  1  0.49295530  0.99683600  0.21219988  1
  C  C27  1  0.49637357  0.48817769  0.30242750  1
  C  C28  1  0.99992721  -0.01360395  0.49478179  1
  C  C29  1  0.01151271  0.50446195  0.40392069  1
  C  C30  1  0.50402702  0.00063959  0.39329537  1
  C  C31  1  0.49230894  0.49667294  0.49285515  1
  C  C32  1  -0.00104511  -0.00436876  0.69425633  1
  C  C33  1  1.00039831  0.49744844  0.59027671  1
  C  C34  1  0.49998775  -0.00323552  0.58883107  1
  C  C35  1  0.49914608  0.49680048  0.69111181  1
  C  C36  1  0.00188695  0.99040461  0.91100312  1
  C  C37  1  -0.00024820  0.49579091  0.80487963  1
  C  C38  1  0.49995572  -0.00200956  0.79763311  1
  C  C39  1  0.50634102  0.49967349  0.90813196  1
