# generated using pymatgen
data_HfScTiCrWC5
_symmetry_space_group_name_H-M   'P 1'
_cell_length_a   4.44964623
_cell_length_b   4.44260286
_cell_length_c   21.99669011
_cell_angle_alpha   90.16935877
_cell_angle_beta   89.90929281
_cell_angle_gamma   89.98416439
_symmetry_Int_Tables_number   1
_chemical_formula_structural   HfScTiCrWC5
_chemical_formula_sum   'Hf4 Sc4 Ti4 Cr4 W4 C20'
_cell_volume   434.82835160
_cell_formula_units_Z   4
loop_
 _symmetry_equiv_pos_site_id
 _symmetry_equiv_pos_as_xyz
  1  'x, y, z'
loop_
 _atom_site_type_symbol
 _atom_site_label
 _atom_site_symmetry_multiplicity
 _atom_site_fract_x
 _atom_site_fract_y
 _atom_site_fract_z
 _atom_site_occupancy
  Hf  Hf0  1  0.00462864  0.49576719  0.29492115  1
  Hf  Hf1  1  0.50514278  0.49448816  0.18955021  1
  Hf  Hf2  1  1.00061171  0.49983884  0.70666234  1
  Hf  Hf3  1  0.50071085  0.49828356  0.60411162  1
  Sc  Sc4  1  0.01094594  -0.01015058  0.18782479  1
  Sc  Sc5  1  1.00523623  0.99274416  0.39992806  1
  Sc  Sc6  1  0.00069724  0.99823487  0.60427355  1
  Sc  Sc7  1  0.49069973  0.01451348  0.90311369  1
  Ti  Ti8  1  0.00144561  0.49538083  0.50114980  1
  Ti  Ti9  1  0.50162282  0.99606299  0.50154716  1
  Ti  Ti10  1  -0.00241344  1.00257356  0.80456213  1
  Ti  Ti11  1  0.49845192  0.50424056  0.80402490  1
  Cr  Cr12  1  0.96934834  1.02469296  1.00109881  1
  Cr  Cr13  1  -0.02219012  0.45899409  0.09168152  1
  Cr  Cr14  1  0.54029942  0.01808426  0.09282735  1
  Cr  Cr15  1  0.50365050  -0.00072178  0.70735298  1
  W  W16  1  0.47842756  0.52666875  1.00235824  1
  W  W17  1  0.51296149  -0.00990739  0.29563730  1
  W  W18  1  0.51448850  0.48011974  0.40322815  1
  W  W19  1  0.98601642  0.52869069  0.90540718  1
  C  C20  1  0.99503634  0.00314704  0.08703959  1
  C  C21  1  -0.00137329  0.49291895  0.00202753  1
  C  C22  1  0.50196867  1.00206002  1.00503384  1
  C  C23  1  0.51404028  0.48558430  0.09209596  1
  C  C24  1  -0.00673252  0.99800950  0.29363170  1
  C  C25  1  1.00605365  0.49071599  0.18418044  1
  C  C26  1  0.50845339  0.99492032  0.19239518  1
  C  C27  1  0.50061341  0.50854262  0.30008285  1
  C  C28  1  1.00071245  0.00027442  0.50094606  1
  C  C29  1  0.99449955  0.49584809  0.40053492  1
  C  C30  1  0.50132034  0.00536110  0.39626931  1
  C  C31  1  0.49886474  0.50128334  0.49720868  1
  C  C32  1  -0.00734116  0.00005693  0.70988134  1
  C  C33  1  1.00055965  0.49827483  0.59955711  1
  C  C34  1  0.50046194  -0.00154578  0.60920056  1
  C  C35  1  0.50020401  0.50119078  0.70765354  1
  C  C36  1  -0.00701114  1.00399701  0.90797502  1
  C  C37  1  0.00021935  0.49997868  0.81038897  1
  C  C38  1  0.49698690  0.00167833  0.79729451  1
  C  C39  1  0.50072237  0.50889566  0.90480644  1
