# generated using pymatgen
data_HfTiVCrWC5
_symmetry_space_group_name_H-M   'P 1'
_cell_length_a   4.37459989
_cell_length_b   4.37542795
_cell_length_c   21.41764067
_cell_angle_alpha   90.02579376
_cell_angle_beta   90.06953620
_cell_angle_gamma   89.98866212
_symmetry_Int_Tables_number   1
_chemical_formula_structural   HfTiVCrWC5
_chemical_formula_sum   'Hf4 Ti4 V4 Cr4 W4 C20'
_cell_volume   409.94928149
_cell_formula_units_Z   4
loop_
 _symmetry_equiv_pos_site_id
 _symmetry_equiv_pos_as_xyz
  1  'x, y, z'
loop_
 _atom_site_type_symbol
 _atom_site_label
 _atom_site_symmetry_multiplicity
 _atom_site_fract_x
 _atom_site_fract_y
 _atom_site_fract_z
 _atom_site_occupancy
  Hf  Hf0  1  1.00148318  0.50328144  0.29523335  1
  Hf  Hf1  1  0.50056295  1.00585692  0.29368262  1
  Hf  Hf2  1  1.00189572  1.00315210  0.40626091  1
  Hf  Hf3  1  -0.00096001  0.99302339  0.80042992  1
  Ti  Ti4  1  -0.00415679  0.49251219  0.09215594  1
  Ti  Ti5  1  0.50135252  0.50307644  0.40500321  1
  Ti  Ti6  1  0.50279180  -0.00381409  0.90141576  1
  Ti  Ti7  1  0.49873505  0.49593834  0.79733928  1
  V  V8  1  0.49467910  0.99103492  0.09385051  1
  V  V9  1  0.49352698  1.00700670  0.69913955  1
  V  V10  1  0.49783436  0.50624328  0.61116848  1
  V  V11  1  -0.00641893  0.49113350  0.90232592  1
  Cr  Cr12  1  1.03020378  -0.02181501  -0.00308642  1
  Cr  Cr13  1  0.51281374  0.52054905  0.18904898  1
  Cr  Cr14  1  0.02168407  1.03748333  0.60870234  1
  Cr  Cr15  1  0.97763930  0.47522598  0.70040423  1
  W  W16  1  0.48335700  0.48992461  -0.00371732  1
  W  W17  1  0.99835035  0.98883355  0.18440661  1
  W  W18  1  0.98103109  0.50106136  0.51449034  1
  W  W19  1  0.50335872  0.97742331  0.51391585  1
  C  C20  1  0.99912725  0.99940748  0.08920051  1
  C  C21  1  -0.00229258  0.50543479  -0.00505412  1
  C  C22  1  0.49873597  -0.00039895  1.00010998  1
  C  C23  1  0.49850010  0.50214908  0.09699781  1
  C  C24  1  0.00061080  1.00409745  0.29223568  1
  C  C25  1  0.98676120  0.50289029  0.19028001  1
  C  C26  1  0.49452052  0.99736940  0.18826937  1
  C  C27  1  0.50109356  0.50540324  0.29383222  1
  C  C28  1  1.00687253  1.00655723  0.51323652  1
  C  C29  1  0.00191924  0.50348837  0.40792038  1
  C  C30  1  0.50168911  1.00316663  0.40724764  1
  C  C31  1  0.50084699  0.49739878  0.50798043  1
  C  C32  1  1.00419179  0.00974144  0.69733050  1
  C  C33  1  1.00443476  0.50434512  0.60941913  1
  C  C34  1  0.49662948  0.00624961  0.60783160  1
  C  C35  1  0.50898299  0.50573526  0.70088235  1
  C  C36  1  0.00258719  1.00002068  0.90560214  1
  C  C37  1  0.99970401  0.49438632  0.79824199  1
  C  C38  1  0.49810446  0.99586735  0.79715336  1
  C  C39  1  0.50666640  0.49748801  0.89959988  1
