# generated using pymatgen
data_HfMgTiCoWC5
_symmetry_space_group_name_H-M   'P 1'
_cell_length_a   4.43650194
_cell_length_b   4.45878296
_cell_length_c   21.56757661
_cell_angle_alpha   90.04117535
_cell_angle_beta   89.81990581
_cell_angle_gamma   90.10018570
_symmetry_Int_Tables_number   1
_chemical_formula_structural   HfMgTiCoWC5
_chemical_formula_sum   'Hf4 Mg4 Ti4 Co4 W4 C20'
_cell_volume   426.63397523
_cell_formula_units_Z   4
loop_
 _symmetry_equiv_pos_site_id
 _symmetry_equiv_pos_as_xyz
  1  'x, y, z'
loop_
 _atom_site_type_symbol
 _atom_site_label
 _atom_site_symmetry_multiplicity
 _atom_site_fract_x
 _atom_site_fract_y
 _atom_site_fract_z
 _atom_site_occupancy
  Hf  Hf0  1  1.00220459  0.00304463  1.00163835  1
  Hf  Hf1  1  0.00217212  0.49954628  0.10474716  1
  Hf  Hf2  1  -0.00345642  0.99814399  0.40373492  1
  Hf  Hf3  1  0.50423901  0.99920606  0.89528067  1
  Mg  Mg4  1  0.50221191  0.50181924  1.00154831  1
  Mg  Mg5  1  0.49279938  -0.01456992  0.50314081  1
  Mg  Mg6  1  0.00112620  0.50231034  0.89881735  1
  Mg  Mg7  1  0.50166536  0.50612422  0.79661417  1
  Ti  Ti8  1  0.00117160  1.00262827  0.20485434  1
  Ti  Ti9  1  0.49671388  0.50230340  0.20653814  1
  Ti  Ti10  1  -0.00287064  0.49618971  0.50265199  1
  Ti  Ti11  1  0.49576753  0.49487263  0.40192427  1
  Co  Co12  1  0.48510175  0.03728343  0.10254381  1
  Co  Co13  1  0.94881140  0.54192902  0.30384772  1
  Co  Co14  1  0.96687166  0.03528895  0.59726916  1
  Co  Co15  1  0.46253087  0.96442912  0.69455882  1
  W  W16  1  0.50192173  0.01355985  0.29908991  1
  W  W17  1  0.99307522  0.54044211  0.69350830  1
  W  W18  1  0.49741632  0.46087881  0.59884491  1
  W  W19  1  1.01159362  0.02261198  0.79215557  1
  C  C20  1  1.02416744  -0.00319412  0.10742021  1
  C  C21  1  1.00115252  0.50439310  0.00292667  1
  C  C22  1  0.50295593  0.00295383  0.01017870  1
  C  C23  1  0.50370444  0.44587808  0.11008110  1
  C  C24  1  0.00327804  0.96070801  0.30066936  1
  C  C25  1  1.00036921  0.49880115  0.21354685  1
  C  C26  1  0.49998543  -0.00408448  0.20056759  1
  C  C27  1  0.53169965  0.49061601  0.30384691  1
  C  C28  1  0.99462448  -0.00505827  0.51039398  1
  C  C29  1  0.99699541  0.49734502  0.39850178  1
  C  C30  1  0.49500312  -0.00620224  0.39736848  1
  C  C31  1  0.49831046  0.49155058  0.50086142  1
  C  C32  1  0.03990077  1.00956214  0.68705410  1
  C  C33  1  1.00789153  0.46278320  0.59788563  1
  C  C34  1  0.54147621  -0.00211367  0.60763465  1
  C  C35  1  0.50665891  0.54847048  0.69242518  1
  C  C36  1  1.00295707  0.99919650  0.88743940  1
  C  C37  1  -0.00347312  0.49467768  0.78706974  1
  C  C38  1  0.48896433  0.00683620  0.78390852  1
  C  C39  1  0.50211934  0.49847133  0.89676091  1
