# generated using pymatgen
data_HfMgTiMnWC5
_symmetry_space_group_name_H-M   'P 1'
_cell_length_a   4.43423652
_cell_length_b   4.46148449
_cell_length_c   21.91529347
_cell_angle_alpha   89.91106534
_cell_angle_beta   90.02171893
_cell_angle_gamma   89.75792133
_symmetry_Int_Tables_number   1
_chemical_formula_structural   HfMgTiMnWC5
_chemical_formula_sum   'Hf4 Mg4 Ti4 Mn4 W4 C20'
_cell_volume   433.55190666
_cell_formula_units_Z   4
loop_
 _symmetry_equiv_pos_site_id
 _symmetry_equiv_pos_as_xyz
  1  'x, y, z'
loop_
 _atom_site_type_symbol
 _atom_site_label
 _atom_site_symmetry_multiplicity
 _atom_site_fract_x
 _atom_site_fract_y
 _atom_site_fract_z
 _atom_site_occupancy
  Hf  Hf0  1  0.99689409  -0.01602084  0.98987348  1
  Hf  Hf1  1  0.99924209  0.50203774  0.09290373  1
  Hf  Hf2  1  0.00751410  0.00753313  0.19913605  1
  Hf  Hf3  1  1.00503672  0.50652436  0.30395005  1
  Mg  Mg4  1  0.50477977  0.00635619  0.30733478  1
  Mg  Mg5  1  0.00362558  0.00650436  0.40165082  1
  Mg  Mg6  1  0.50462349  0.50410588  0.39972454  1
  Mg  Mg7  1  0.99474068  0.50221068  0.70367407  1
  Ti  Ti8  1  0.50479818  0.51167718  0.19728775  1
  Ti  Ti9  1  -0.01069497  1.00035330  0.60949301  1
  Ti  Ti10  1  0.50270118  -0.00036230  0.70698285  1
  Ti  Ti11  1  -0.01216124  0.49094638  0.89399075  1
  Mn  Mn12  1  0.53088282  1.04873411  0.09742935  1
  Mn  Mn13  1  0.46279502  0.43584783  0.99086346  1
  Mn  Mn14  1  0.05991968  0.04505657  0.79974412  1
  Mn  Mn15  1  0.53653987  0.93444698  0.89558221  1
  W  W16  1  0.00661602  0.52276134  0.50035753  1
  W  W17  1  0.51080368  0.02014919  0.50275805  1
  W  W18  1  0.46519287  0.51703370  0.60712612  1
  W  W19  1  0.50143196  0.49170761  0.79988560  1
  C  C20  1  -0.03926442  0.99858906  0.09181570  1
  C  C21  1  0.03214660  0.48614440  0.98999690  1
  C  C22  1  0.49449055  0.02548100  0.98576679  1
  C  C23  1  0.49822446  0.46283341  0.08548082  1
  C  C24  1  0.00411537  1.00668570  0.29978254  1
  C  C25  1  1.00622616  0.50824787  0.19634225  1
  C  C26  1  0.50206204  1.00738216  0.18209306  1
  C  C27  1  0.50474019  0.50554593  0.29060391  1
  C  C28  1  0.99961481  1.00450168  0.51290625  1
  C  C29  1  0.00476276  0.50436932  0.41071095  1
  C  C30  1  0.50248612  1.00186971  0.41422787  1
  C  C31  1  0.51203333  0.50063145  0.51118436  1
  C  C32  1  -0.00257125  0.99741305  0.71219199  1
  C  C33  1  0.00047115  0.49730331  0.60399336  1
  C  C34  1  0.49448872  0.99473058  0.61048287  1
  C  C35  1  0.49953691  0.50399531  0.70558688  1
  C  C36  1  0.95410370  0.98152064  0.88623634  1
  C  C37  1  -0.00400640  0.46045556  0.80130119  1
  C  C38  1  0.46969907  0.99380429  0.80736956  1
  C  C39  1  0.49388321  0.51802713  0.90144838  1
