# generated using pymatgen
data_HfMgTiNiWC5
_symmetry_space_group_name_H-M   'P 1'
_cell_length_a   4.40172009
_cell_length_b   4.40592040
_cell_length_c   22.29479234
_cell_angle_alpha   90.02134176
_cell_angle_beta   89.97011142
_cell_angle_gamma   89.98567226
_symmetry_Int_Tables_number   1
_chemical_formula_structural   HfMgTiNiWC5
_chemical_formula_sum   'Hf4 Mg4 Ti4 Ni4 W4 C20'
_cell_volume   432.37681385
_cell_formula_units_Z   4
loop_
 _symmetry_equiv_pos_site_id
 _symmetry_equiv_pos_as_xyz
  1  'x, y, z'
loop_
 _atom_site_type_symbol
 _atom_site_label
 _atom_site_symmetry_multiplicity
 _atom_site_fract_x
 _atom_site_fract_y
 _atom_site_fract_z
 _atom_site_occupancy
  Hf  Hf0  1  0.99872779  1.00244292  1.00164321  1
  Hf  Hf1  1  1.00143746  0.50019463  0.30098194  1
  Hf  Hf2  1  1.00078682  0.51882427  0.49972741  1
  Hf  Hf3  1  0.49286895  0.99909146  0.69854739  1
  Mg  Mg4  1  0.49882821  0.49977536  0.00213308  1
  Mg  Mg5  1  0.50097739  -0.00321032  0.30112272  1
  Mg  Mg6  1  0.50273197  0.49928637  0.20194429  1
  Mg  Mg7  1  0.99873897  0.00705493  0.39703377  1
  Ti  Ti8  1  0.49634652  0.00059182  0.10430660  1
  Ti  Ti9  1  -0.00034153  0.00125579  0.19878910  1
  Ti  Ti10  1  -0.00262301  1.00358925  0.60115364  1
  Ti  Ti11  1  0.99731184  0.50007383  0.69896994  1
  Ni  Ni12  1  0.03476260  0.50147642  0.11169130  1
  Ni  Ni13  1  0.50414280  0.52468681  0.39708353  1
  Ni  Ni14  1  0.49893417  0.50439822  0.60293999  1
  Ni  Ni15  1  0.52207978  0.48168912  0.79415486  1
  W  W16  1  0.50136723  0.03195560  0.50351049  1
  W  W17  1  0.96971318  -0.02590160  0.79901677  1
  W  W18  1  0.03111476  0.49039383  0.89654860  1
  W  W19  1  0.50322152  0.96939070  0.89939023  1
  C  C20  1  0.99500691  1.00160944  0.10126316  1
  C  C21  1  0.99256834  0.50406952  -0.01452422  1
  C  C22  1  0.49880750  1.00233293  0.99248448  1
  C  C23  1  0.46706213  0.50096819  0.09889374  1
  C  C24  1  0.00097674  1.00081244  0.29215321  1
  C  C25  1  0.00091956  0.50106165  0.19558484  1
  C  C26  1  0.50150265  -0.00052053  0.19386927  1
  C  C27  1  0.50106489  0.49550309  0.31130772  1
  C  C28  1  -0.00044974  0.01595735  0.50674132  1
  C  C29  1  0.99306188  0.50481494  0.40062393  1
  C  C30  1  0.49777692  0.94398285  0.41545018  1
  C  C31  1  0.50051060  0.50215248  0.50699464  1
  C  C32  1  0.99649265  1.00332525  0.70254986  1
  C  C33  1  -0.00173972  0.50113613  0.60584110  1
  C  C34  1  0.49768370  -0.01468996  0.59870103  1
  C  C35  1  0.49808936  0.49938280  0.69964091  1
  C  C36  1  0.01143625  0.00699971  0.89334220  1
  C  C37  1  0.99094171  0.50661432  0.79786049  1
  C  C38  1  0.49841628  0.01652428  0.80200274  1
  C  C39  1  0.50628206  0.50102380  0.88885092  1
