# generated using pymatgen
data_HfMgScTiWC5
_symmetry_space_group_name_H-M   'P 1'
_cell_length_a   4.50168766
_cell_length_b   4.49444618
_cell_length_c   22.68181140
_cell_angle_alpha   89.98644686
_cell_angle_beta   89.95306129
_cell_angle_gamma   90.01447670
_symmetry_Int_Tables_number   1
_chemical_formula_structural   HfMgScTiWC5
_chemical_formula_sum   'Hf4 Mg4 Sc4 Ti4 W4 C20'
_cell_volume   458.91167488
_cell_formula_units_Z   4
loop_
 _symmetry_equiv_pos_site_id
 _symmetry_equiv_pos_as_xyz
  1  'x, y, z'
loop_
 _atom_site_type_symbol
 _atom_site_label
 _atom_site_symmetry_multiplicity
 _atom_site_fract_x
 _atom_site_fract_y
 _atom_site_fract_z
 _atom_site_occupancy
  Hf  Hf0  1  0.50030681  0.49830183  0.00115686  1
  Hf  Hf1  1  -0.00458459  1.00641454  0.40069051  1
  Hf  Hf2  1  -0.00899807  0.50120216  0.69988100  1
  Hf  Hf3  1  0.49951786  0.49744341  0.59598647  1
  Mg  Mg4  1  0.00050324  0.99680869  -0.00079570  1
  Mg  Mg5  1  0.49979076  0.99584222  0.10051779  1
  Mg  Mg6  1  0.49740768  1.00085354  0.29701286  1
  Mg  Mg7  1  0.49996913  -0.00134173  0.50185438  1
  Sc  Sc8  1  -0.00024225  0.99726329  0.20102748  1
  Sc  Sc9  1  0.49980442  0.49776699  0.20043704  1
  Sc  Sc10  1  1.00057946  0.49899889  0.49955830  1
  Sc  Sc11  1  0.00143154  0.49945295  0.90191520  1
  Ti  Ti12  1  0.99992807  0.47948735  0.10014117  1
  Ti  Ti13  1  0.99542708  0.49861077  0.29769551  1
  Ti  Ti14  1  0.99848503  -0.00219851  0.59677003  1
  Ti  Ti15  1  0.50265864  0.00060856  0.89870321  1
  W  W16  1  0.48558464  0.52440523  0.39682881  1
  W  W17  1  0.47306430  1.01046194  0.69830440  1
  W  W18  1  0.02844008  0.01499459  0.80338150  1
  W  W19  1  0.51414046  0.52526522  0.80343799  1
  C  C20  1  -0.00019457  0.02805102  0.09959666  1
  C  C21  1  1.00025793  0.49969355  0.00586011  1
  C  C22  1  0.50029485  -0.00280909  0.98648638  1
  C  C23  1  0.50040962  0.50143830  0.09779878  1
  C  C24  1  1.00125137  -0.00222901  0.30338684  1
  C  C25  1  1.00021063  0.49823352  0.20458162  1
  C  C26  1  0.49969895  0.99709179  0.20090114  1
  C  C27  1  0.51363126  0.49510409  0.30846877  1
  C  C28  1  0.99978369  -0.00102534  0.50840108  1
  C  C29  1  0.00929738  0.50239483  0.39726913  1
  C  C30  1  0.49728039  -0.01030246  0.40190272  1
  C  C31  1  0.50386391  0.49260113  0.49521620  1
  C  C32  1  -0.00038357  -0.00395878  0.70258173  1
  C  C33  1  1.00018898  0.49779383  0.60178465  1
  C  C34  1  0.50265869  0.99550123  0.60748179  1
  C  C35  1  0.49277848  0.48735417  0.70354568  1
  C  C36  1  -0.00041371  0.99782900  0.89120515  1
  C  C37  1  0.99328531  0.49380814  0.79924673  1
  C  C38  1  0.50193757  0.99586532  0.79632572  1
  C  C39  1  0.49968476  0.49734459  0.89294648  1
