# generated using pymatgen
data_HfTiMnCoWC5
_symmetry_space_group_name_H-M   'P 1'
_cell_length_a   4.44999418
_cell_length_b   4.43062255
_cell_length_c   20.95109364
_cell_angle_alpha   90.34995615
_cell_angle_beta   89.52718726
_cell_angle_gamma   90.22279877
_symmetry_Int_Tables_number   1
_chemical_formula_structural   HfTiMnCoWC5
_chemical_formula_sum   'Hf4 Ti4 Mn4 Co4 W4 C20'
_cell_volume   413.05207342
_cell_formula_units_Z   4
loop_
 _symmetry_equiv_pos_site_id
 _symmetry_equiv_pos_as_xyz
  1  'x, y, z'
loop_
 _atom_site_type_symbol
 _atom_site_label
 _atom_site_symmetry_multiplicity
 _atom_site_fract_x
 _atom_site_fract_y
 _atom_site_fract_z
 _atom_site_occupancy
  Hf  Hf0  1  0.52463595  1.01084600  0.08928632  1
  Hf  Hf1  1  0.51795119  0.51296767  0.20035214  1
  Hf  Hf2  1  0.98031510  0.50126027  0.70680430  1
  Hf  Hf3  1  0.49019319  0.49424250  0.59965906  1
  Ti  Ti4  1  1.01646878  0.00958789  0.20063537  1
  Ti  Ti5  1  0.49302674  -0.01531951  0.49464327  1
  Ti  Ti6  1  0.98995017  -0.00492165  0.59942142  1
  Ti  Ti7  1  0.47856544  0.99335882  0.70849813  1
  Mn  Mn8  1  0.43982218  0.05367119  0.30382291  1
  Mn  Mn9  1  0.94435818  -0.03554909  0.39861033  1
  Mn  Mn10  1  0.94365866  0.03831231  0.80699760  1
  Mn  Mn11  1  0.45491955  0.43020482  0.80903573  1
  Co  Co12  1  0.05676222  0.04153692  -0.00660868  1
  Co  Co13  1  0.46989153  0.47045378  -0.00782139  1
  Co  Co14  1  0.55501836  0.45028145  0.39901030  1
  Co  Co15  1  0.54818019  0.96457143  0.90110482  1
  W  W16  1  1.01890110  0.52814330  0.09258610  1
  W  W17  1  1.02725453  0.51179602  0.30425844  1
  W  W18  1  0.01897792  0.47903863  0.49512290  1
  W  W19  1  0.97598227  0.53296192  0.90394436  1
  C  C20  1  1.02114504  0.00425690  0.09123425  1
  C  C21  1  1.02479348  0.46590358  -0.00164755  1
  C  C22  1  0.47496018  0.03231971  0.98530427  1
  C  C23  1  0.52105202  0.51068470  0.08731863  1
  C  C24  1  1.02829632  1.00009836  0.30271233  1
  C  C25  1  1.01347131  0.50550904  0.19732532  1
  C  C26  1  0.51824608  0.01046895  0.20744149  1
  C  C27  1  0.50630765  0.47872201  0.30789318  1
  C  C28  1  0.99837823  0.99411826  0.49454744  1
  C  C29  1  0.96848337  0.52274224  0.39972487  1
  C  C30  1  0.53162324  0.00489059  0.39363742  1
  C  C31  1  0.49271600  0.48778837  0.49058586  1
  C  C32  1  -0.02006921  -0.00174904  0.70943660  1
  C  C33  1  0.98862922  0.49699664  0.59686175  1
  C  C34  1  0.49042725  0.99457205  0.60120641  1
  C  C35  1  0.48195049  0.49876131  0.71257865  1
  C  C36  1  0.97497660  1.00944644  0.90423985  1
  C  C37  1  1.02602125  0.45875258  0.80868587  1
  C  C38  1  0.51613770  0.01890414  0.81010844  1
  C  C39  1  0.49256218  0.54056564  0.90065024  1
