# generated using pymatgen
data_HfTiMnNiWC5
_symmetry_space_group_name_H-M   'P 1'
_cell_length_a   4.42056189
_cell_length_b   4.35551636
_cell_length_c   21.51530659
_cell_angle_alpha   90.27997995
_cell_angle_beta   89.64283383
_cell_angle_gamma   89.87689474
_symmetry_Int_Tables_number   1
_chemical_formula_structural   HfTiMnNiWC5
_chemical_formula_sum   'Hf4 Ti4 Mn4 Ni4 W4 C20'
_cell_volume   414.23807000
_cell_formula_units_Z   4
loop_
 _symmetry_equiv_pos_site_id
 _symmetry_equiv_pos_as_xyz
  1  'x, y, z'
loop_
 _atom_site_type_symbol
 _atom_site_label
 _atom_site_symmetry_multiplicity
 _atom_site_fract_x
 _atom_site_fract_y
 _atom_site_fract_z
 _atom_site_occupancy
  Hf  Hf0  1  0.49881442  1.00008965  0.10286375  1
  Hf  Hf1  1  0.98730654  0.99253091  0.20416517  1
  Hf  Hf2  1  0.51708369  -0.00369078  0.49066253  1
  Hf  Hf3  1  0.50468082  0.00017691  0.70266071  1
  Ti  Ti4  1  0.99981255  0.00104385  1.00033641  1
  Ti  Ti5  1  -0.01484411  0.50770270  0.30609020  1
  Ti  Ti6  1  0.01054837  0.49923459  0.49629859  1
  Ti  Ti7  1  -0.00279256  -0.00076726  0.79987824  1
  Mn  Mn8  1  0.45603993  0.46953991  0.21347297  1
  Mn  Mn9  1  0.06210364  0.04783098  0.39580276  1
  Mn  Mn10  1  -0.05122475  0.54252253  0.89776374  1
  Mn  Mn11  1  0.45037217  0.52098049  0.79861171  1
  Ni  Ni12  1  0.01017527  0.49745456  0.09646328  1
  Ni  Ni13  1  0.50083142  0.00410304  0.30075955  1
  Ni  Ni14  1  0.48511671  0.49523447  0.39672420  1
  Ni  Ni15  1  1.01112413  0.49340095  0.70291261  1
  W  W16  1  0.48111263  0.49784898  1.00071499  1
  W  W17  1  0.99728882  0.01738515  0.60050777  1
  W  W18  1  0.48627579  0.50425692  0.59976552  1
  W  W19  1  0.49380673  0.01652293  0.89818755  1
  C  C20  1  -0.00034447  -0.00383687  0.09754535  1
  C  C21  1  1.00823828  0.49367696  0.99330449  1
  C  C22  1  0.50193101  -0.00412812  0.99610594  1
  C  C23  1  0.51212908  0.49876606  0.09444653  1
  C  C24  1  -0.03169532  -0.00187537  0.31123234  1
  C  C25  1  1.03834174  0.49496533  0.20181460  1
  C  C26  1  0.49161301  1.02856942  0.20864800  1
  C  C27  1  0.49211565  0.50971648  0.29804314  1
  C  C28  1  1.01259311  0.99510334  0.49521049  1
  C  C29  1  1.00195465  0.47133213  0.40099036  1
  C  C30  1  0.47090588  0.99740698  0.38932025  1
  C  C31  1  0.51094611  0.49750731  0.49959871  1
  C  C32  1  0.00364808  0.99818061  0.69868046  1
  C  C33  1  0.01401554  0.49396998  0.60421134  1
  C  C34  1  0.51645820  0.99030668  0.59747033  1
  C  C35  1  0.50287661  0.49842769  0.70615473  1
  C  C36  1  -0.00010224  -0.02390145  0.89943081  1
  C  C37  1  0.03621413  0.49142448  0.80429969  1
  C  C38  1  0.49916237  0.97656255  0.80377433  1
  C  C39  1  0.53370612  0.49615774  0.89514622  1
