# generated using pymatgen
data_HfScTiMnWC5
_symmetry_space_group_name_H-M   'P 1'
_cell_length_a   4.47897643
_cell_length_b   4.48108301
_cell_length_c   21.94636160
_cell_angle_alpha   90.20241231
_cell_angle_beta   90.03430728
_cell_angle_gamma   89.96277420
_symmetry_Int_Tables_number   1
_chemical_formula_structural   HfScTiMnWC5
_chemical_formula_sum   'Hf4 Sc4 Ti4 Mn4 W4 C20'
_cell_volume   440.47515550
_cell_formula_units_Z   4
loop_
 _symmetry_equiv_pos_site_id
 _symmetry_equiv_pos_as_xyz
  1  'x, y, z'
loop_
 _atom_site_type_symbol
 _atom_site_label
 _atom_site_symmetry_multiplicity
 _atom_site_fract_x
 _atom_site_fract_y
 _atom_site_fract_z
 _atom_site_occupancy
  Hf  Hf0  1  0.50109717  0.48993500  0.19288557  1
  Hf  Hf1  1  0.99393197  0.99932418  0.39744066  1
  Hf  Hf2  1  0.49334412  0.49959592  0.39800790  1
  Hf  Hf3  1  -0.01017009  1.00122959  0.60477923  1
  Sc  Sc4  1  0.49368088  0.99536851  0.29362434  1
  Sc  Sc5  1  0.49378506  0.50593928  0.60362986  1
  Sc  Sc6  1  1.00901506  0.50141101  0.90497795  1
  Sc  Sc7  1  0.50545502  0.50215058  0.80256952  1
  Ti  Ti8  1  0.49083209  1.00120993  0.09464522  1
  Ti  Ti9  1  -0.00374700  0.49460420  0.29161143  1
  Ti  Ti10  1  0.49279278  1.00081593  0.50194806  1
  Ti  Ti11  1  1.00533640  0.49483626  0.70529004  1
  Mn  Mn12  1  -0.04299219  0.96634594  0.00772580  1
  Mn  Mn13  1  1.03438879  0.45101029  0.09643251  1
  Mn  Mn14  1  0.96517406  -0.04691691  0.19681244  1
  Mn  Mn15  1  0.46179281  0.03902570  0.70041965  1
  W  W16  1  0.51801785  0.51953459  0.00163386  1
  W  W17  1  0.98187455  0.49396725  0.50308115  1
  W  W18  1  0.99430515  0.99349797  0.80413560  1
  W  W19  1  0.49592093  0.01117436  0.90212956  1
  C  C20  1  0.99790031  0.04143174  0.09483288  1
  C  C21  1  1.00122267  0.54799715  1.01030945  1
  C  C22  1  0.53515317  0.00726335  -0.00178596  1
  C  C23  1  0.46154329  0.49624704  0.09434043  1
  C  C24  1  0.99683751  -0.00072668  0.28350522  1
  C  C25  1  0.00176296  0.53621893  0.18851173  1
  C  C26  1  0.54166304  0.99285643  0.18953836  1
  C  C27  1  0.49497789  0.49466574  0.29516972  1
  C  C28  1  -0.00397309  0.00992491  0.50116327  1
  C  C29  1  -0.00488393  0.50058763  0.39560330  1
  C  C30  1  0.49411448  -0.00013829  0.40395852  1
  C  C31  1  0.50334770  0.50616392  0.50056249  1
  C  C32  1  0.04334890  0.99207741  0.70872434  1
  C  C33  1  -0.00612299  0.50237698  0.60002359  1
  C  C34  1  0.49228056  0.00153548  0.61144013  1
  C  C35  1  0.50670675  0.45290208  0.70334184  1
  C  C36  1  0.02884459  1.00356667  0.90628097  1
  C  C37  1  1.00688368  0.50652511  0.80065697  1
  C  C38  1  0.52676557  -0.00077015  0.80306452  1
  C  C39  1  0.50749423  0.49497274  0.90670382  1
