# generated using pymatgen
data_HfTiCoMoWC5
_symmetry_space_group_name_H-M   'P 1'
_cell_length_a   4.42767150
_cell_length_b   4.41722316
_cell_length_c   21.56012082
_cell_angle_alpha   90.04300951
_cell_angle_beta   90.14006013
_cell_angle_gamma   90.07897403
_symmetry_Int_Tables_number   1
_chemical_formula_structural   HfTiCoMoWC5
_chemical_formula_sum   'Hf4 Ti4 Co4 Mo4 W4 C20'
_cell_volume   421.67134545
_cell_formula_units_Z   4
loop_
 _symmetry_equiv_pos_site_id
 _symmetry_equiv_pos_as_xyz
  1  'x, y, z'
loop_
 _atom_site_type_symbol
 _atom_site_label
 _atom_site_symmetry_multiplicity
 _atom_site_fract_x
 _atom_site_fract_y
 _atom_site_fract_z
 _atom_site_occupancy
  Hf  Hf0  1  0.99005740  0.49903739  0.09734349  1
  Hf  Hf1  1  0.50227511  0.99876366  0.29448708  1
  Hf  Hf2  1  1.00327361  -0.00057438  0.40145315  1
  Hf  Hf3  1  0.51071629  0.99653082  0.50838333  1
  Ti  Ti4  1  0.49856112  0.50316950  0.99374137  1
  Ti  Ti5  1  0.49546570  0.50089106  0.19662641  1
  Ti  Ti6  1  0.50254957  0.49962306  0.40255825  1
  Ti  Ti7  1  -0.00315615  0.49145444  0.89167827  1
  Co  Co8  1  1.00168455  -0.00803490  0.19658861  1
  Co  Co9  1  -0.05150294  0.54575043  0.70272327  1
  Co  Co10  1  0.54947882  0.45854957  0.60633614  1
  Co  Co11  1  0.04097154  -0.04629971  0.79940650  1
  Mo  Mo12  1  1.02396565  0.99308213  0.98841938  1
  Mo  Mo13  1  0.47302184  1.00344387  0.10084474  1
  Mo  Mo14  1  0.00120151  0.49385229  0.29123975  1
  Mo  Mo15  1  1.00222969  1.03315612  0.61529267  1
  W  W16  1  1.02378614  0.50291549  0.51646190  1
  W  W17  1  0.49362862  -0.01165387  0.70356267  1
  W  W18  1  0.52712299  1.00238411  0.89633712  1
  W  W19  1  0.46340156  0.48733540  0.79389882  1
  C  C20  1  0.99941895  -0.00086270  0.09771221  1
  C  C21  1  -0.00117043  0.50528802  0.99073489  1
  C  C22  1  0.49758267  1.00196901  -0.00584868  1
  C  C23  1  0.49268258  0.49675248  0.09528968  1
  C  C24  1  0.00226349  1.00433033  0.29262820  1
  C  C25  1  0.99729738  0.51073956  0.20019677  1
  C  C26  1  0.50096654  -0.00022255  0.19245309  1
  C  C27  1  0.50078511  0.49920109  0.29996121  1
  C  C28  1  0.00952915  -0.00815431  0.51030170  1
  C  C29  1  1.00106543  0.49970051  0.40739626  1
  C  C30  1  0.50309237  -0.00038498  0.40213802  1
  C  C31  1  0.50349300  0.49731364  0.51235450  1
  C  C32  1  -0.00593930  -0.01789480  0.71067025  1
  C  C33  1  0.97402353  0.51340723  0.61223325  1
  C  C34  1  0.49397529  1.03518622  0.60951029  1
  C  C35  1  0.51987505  0.50045947  0.69799048  1
  C  C36  1  1.00117885  -0.00525456  0.88911527  1
  C  C37  1  -0.01054705  0.52316049  0.79224601  1
  C  C38  1  0.46993462  1.00369622  0.80104767  1
  C  C39  1  0.50306718  0.49619429  0.89477092  1
