# generated using pymatgen
data_HfMgTiMoWC5
_symmetry_space_group_name_H-M   'P 1'
_cell_length_a   4.44353131
_cell_length_b   4.44646005
_cell_length_c   22.27779330
_cell_angle_alpha   89.93891960
_cell_angle_beta   90.07108303
_cell_angle_gamma   90.01052939
_symmetry_Int_Tables_number   1
_chemical_formula_structural   HfMgTiMoWC5
_chemical_formula_sum   'Hf4 Mg4 Ti4 Mo4 W4 C20'
_cell_volume   440.16369794
_cell_formula_units_Z   4
loop_
 _symmetry_equiv_pos_site_id
 _symmetry_equiv_pos_as_xyz
  1  'x, y, z'
loop_
 _atom_site_type_symbol
 _atom_site_label
 _atom_site_symmetry_multiplicity
 _atom_site_fract_x
 _atom_site_fract_y
 _atom_site_fract_z
 _atom_site_occupancy
  Hf  Hf0  1  1.00170080  0.49906416  0.50175600  1
  Hf  Hf1  1  0.50225351  -0.00040034  0.50273123  1
  Hf  Hf2  1  0.50159976  0.50130092  0.39577844  1
  Hf  Hf3  1  0.50268655  0.49905726  0.60923062  1
  Mg  Mg4  1  1.00257025  0.50343570  0.09526141  1
  Mg  Mg5  1  0.49400288  0.99649180  0.09413704  1
  Mg  Mg6  1  0.49479271  0.50141463  0.00452243  1
  Mg  Mg7  1  0.99789083  0.50311926  0.70577496  1
  Ti  Ti8  1  0.99985524  0.50528804  0.29385122  1
  Ti  Ti9  1  1.00175152  0.99905285  0.61134105  1
  Ti  Ti10  1  0.00416564  1.00318643  0.80208608  1
  Ti  Ti11  1  0.49797535  -0.00709909  0.90147313  1
  Mo  Mo12  1  0.51609911  0.48392760  0.18998452  1
  Mo  Mo13  1  0.48274707  1.01562914  0.71001767  1
  Mo  Mo14  1  -0.02740149  0.48069472  0.90278065  1
  Mo  Mo15  1  0.48252924  0.51834820  0.80359196  1
  W  W16  1  0.97777500  0.01216209  -0.00188825  1
  W  W17  1  0.99946537  -0.00034192  0.18855733  1
  W  W18  1  0.51505995  0.02051138  0.29159057  1
  W  W19  1  1.01092011  0.99179849  0.39396816  1
  C  C20  1  0.99551434  0.00291717  0.09833206  1
  C  C21  1  1.00379883  0.49288936  -0.00600175  1
  C  C22  1  0.51114619  0.99717137  -0.00584788  1
  C  C23  1  0.49981839  0.49765995  0.10417830  1
  C  C24  1  0.99131546  0.00437531  0.29682636  1
  C  C25  1  0.99712922  0.50012406  0.20043580  1
  C  C26  1  0.49290305  -0.00645809  0.20015831  1
  C  C27  1  0.49233114  0.50159380  0.29511461  1
  C  C28  1  1.00081345  1.00018860  0.49627662  1
  C  C29  1  -0.00031376  0.50948428  0.39398409  1
  C  C30  1  0.49195798  0.00281031  0.39387107  1
  C  C31  1  0.50134399  0.49919282  0.50107701  1
  C  C32  1  0.01147412  0.00005893  0.70568960  1
  C  C33  1  0.00311330  0.49929335  0.60437511  1
  C  C34  1  0.50515902  -0.00200073  0.60806519  1
  C  C35  1  0.50421324  0.48820247  0.71010691  1
  C  C36  1  1.00462806  -0.00169406  0.90033224  1
  C  C37  1  1.01495317  0.50337470  0.80575858  1
  C  C38  1  0.51087871  0.99627243  0.80303908  1
  C  C39  1  0.50668456  0.49219463  0.89768004  1
