# generated using pymatgen
data_HfTiMnMoWC5
_symmetry_space_group_name_H-M   'P 1'
_cell_length_a   4.42509119
_cell_length_b   4.40865589
_cell_length_c   21.81322835
_cell_angle_alpha   89.64468563
_cell_angle_beta   90.28366685
_cell_angle_gamma   90.13647259
_symmetry_Int_Tables_number   1
_chemical_formula_structural   HfTiMnMoWC5
_chemical_formula_sum   'Hf4 Ti4 Mn4 Mo4 W4 C20'
_cell_volume   425.53324886
_cell_formula_units_Z   4
loop_
 _symmetry_equiv_pos_site_id
 _symmetry_equiv_pos_as_xyz
  1  'x, y, z'
loop_
 _atom_site_type_symbol
 _atom_site_label
 _atom_site_symmetry_multiplicity
 _atom_site_fract_x
 _atom_site_fract_y
 _atom_site_fract_z
 _atom_site_occupancy
  Hf  Hf0  1  0.00525654  -0.00707564  1.00274444  1
  Hf  Hf1  1  0.50221999  0.49148398  1.00005141  1
  Hf  Hf2  1  0.52195539  -0.00568319  0.50121549  1
  Hf  Hf3  1  0.99148680  1.00532030  0.79761589  1
  Ti  Ti4  1  -0.00125348  0.49406066  0.10548687  1
  Ti  Ti5  1  0.99367621  0.50557984  0.30191562  1
  Ti  Ti6  1  0.48712321  1.01088647  0.70031862  1
  Ti  Ti7  1  0.49862965  0.99802203  0.89712672  1
  Mn  Mn8  1  0.54013001  0.95290174  0.10292042  1
  Mn  Mn9  1  1.04596860  1.01917701  0.40065892  1
  Mn  Mn10  1  0.44999656  0.54257284  0.61261291  1
  Mn  Mn11  1  0.47877973  0.51642313  0.80128087  1
  Mo  Mo12  1  0.50972909  0.47138392  0.19871690  1
  Mo  Mo13  1  0.03602383  0.48807883  0.49130325  1
  Mo  Mo14  1  0.96227691  0.50408060  0.69382610  1
  Mo  Mo15  1  0.99184411  0.49311235  0.89388444  1
  W  W16  1  0.00857465  1.01148850  0.20498053  1
  W  W17  1  0.51241749  0.01041659  0.29736696  1
  W  W18  1  0.51364312  0.51306826  0.39771432  1
  W  W19  1  0.99515415  0.00720118  0.60144476  1
  C  C20  1  0.96270853  0.99761728  0.10795951  1
  C  C21  1  0.00310301  0.49286615  0.00211019  1
  C  C22  1  0.50370599  0.99245628  0.00506247  1
  C  C23  1  0.49489624  0.52842763  0.10476681  1
  C  C24  1  0.99030652  0.99867594  0.30335213  1
  C  C25  1  0.99636849  0.49938556  0.20335755  1
  C  C26  1  0.48559188  -0.00143120  0.19748644  1
  C  C27  1  0.49345563  0.49940987  0.29950466  1
  C  C28  1  0.01780084  0.00099345  0.49698894  1
  C  C29  1  0.99700471  0.48664626  0.39832121  1
  C  C30  1  0.47389333  0.99450651  0.39470667  1
  C  C31  1  0.51567128  0.49473054  0.49747132  1
  C  C32  1  -0.00934416  1.01420544  0.69652502  1
  C  C33  1  0.02889948  0.49668557  0.59811060  1
  C  C34  1  0.50752081  -0.02323373  0.60261218  1
  C  C35  1  0.49261861  0.50747509  0.69989115  1
  C  C36  1  -0.00118785  0.00314079  0.90015118  1
  C  C37  1  1.00857174  0.50474498  0.79742115  1
  C  C38  1  0.49261563  -0.00922897  0.79865102  1
  C  C39  1  0.50141458  0.49908082  0.89185833  1
