# generated using pymatgen
data_HfTiNiMoWC5
_symmetry_space_group_name_H-M   'P 1'
_cell_length_a   4.39122446
_cell_length_b   4.38626097
_cell_length_c   22.00750467
_cell_angle_alpha   89.99653193
_cell_angle_beta   90.03526124
_cell_angle_gamma   89.98386598
_symmetry_Int_Tables_number   1
_chemical_formula_structural   HfTiNiMoWC5
_chemical_formula_sum   'Hf4 Ti4 Ni4 Mo4 W4 C20'
_cell_volume   423.88769243
_cell_formula_units_Z   4
loop_
 _symmetry_equiv_pos_site_id
 _symmetry_equiv_pos_as_xyz
  1  'x, y, z'
loop_
 _atom_site_type_symbol
 _atom_site_label
 _atom_site_symmetry_multiplicity
 _atom_site_fract_x
 _atom_site_fract_y
 _atom_site_fract_z
 _atom_site_occupancy
  Hf  Hf0  1  -0.00713013  -0.00367338  1.00512214  1
  Hf  Hf1  1  0.50056460  0.49740733  0.20640202  1
  Hf  Hf2  1  0.51219502  0.50185266  0.59517570  1
  Hf  Hf3  1  -0.00837937  0.99805947  0.79089333  1
  Ti  Ti4  1  -0.00249118  0.49878772  0.10957778  1
  Ti  Ti5  1  0.50034005  1.00480849  0.30845099  1
  Ti  Ti6  1  1.00291914  0.49618936  0.49265052  1
  Ti  Ti7  1  0.50079832  0.49985967  0.40369212  1
  Ni  Ni8  1  1.00147806  0.99767956  0.20543877  1
  Ni  Ni9  1  -0.00466609  -0.00120525  0.40399725  1
  Ni  Ni10  1  0.50246913  0.99926956  0.49318561  1
  Ni  Ni11  1  0.49516589  0.00235992  0.68860399  1
  Mo  Mo12  1  0.48137861  0.48317926  0.00479620  1
  Mo  Mo13  1  0.02496712  0.00502947  0.58827660  1
  Mo  Mo14  1  0.01709192  0.52659615  0.69339463  1
  Mo  Mo15  1  0.50798877  -0.01544978  0.89579444  1
  W  W16  1  0.49089634  0.99332907  0.10994750  1
  W  W17  1  1.00092978  0.53282177  0.30815363  1
  W  W18  1  1.03475237  0.48609710  0.90134672  1
  W  W19  1  0.49292863  0.48795731  0.79256023  1
  C  C20  1  0.99913317  0.99929928  0.10871992  1
  C  C21  1  -0.00201826  0.50013344  0.99936289  1
  C  C22  1  0.49608205  1.00681756  0.00209858  1
  C  C23  1  0.49875232  0.50129790  0.09916502  1
  C  C24  1  0.99965548  1.00226726  0.30295775  1
  C  C25  1  1.00002427  0.49475303  0.20480709  1
  C  C26  1  0.50026816  0.99845929  0.20233322  1
  C  C27  1  0.50044414  0.50150385  0.30630593  1
  C  C28  1  -0.00469316  -0.00332539  0.49725597  1
  C  C29  1  1.00067125  0.49885341  0.39946384  1
  C  C30  1  0.49849068  0.00034028  0.40308170  1
  C  C31  1  0.50282245  0.50066534  0.49595359  1
  C  C32  1  0.98392862  0.99142388  0.69011242  1
  C  C33  1  1.00856963  0.49404190  0.59696331  1
  C  C34  1  0.50020762  0.00115943  0.59424585  1
  C  C35  1  0.49511619  0.49671675  0.70130359  1
  C  C36  1  0.98957584  0.00656458  0.89950032  1
  C  C37  1  0.99285846  0.50014156  0.79923216  1
  C  C38  1  0.49221260  0.00462196  0.80036693  1
  C  C39  1  0.50404674  0.51492667  0.89936763  1
