# generated using pymatgen
data_HfScTiMoWC5
_symmetry_space_group_name_H-M   'P 1'
_cell_length_a   4.48132454
_cell_length_b   4.47666065
_cell_length_c   22.38830723
_cell_angle_alpha   90.01105671
_cell_angle_beta   89.98388501
_cell_angle_gamma   89.99952623
_symmetry_Int_Tables_number   1
_chemical_formula_structural   HfScTiMoWC5
_chemical_formula_sum   'Hf4 Sc4 Ti4 Mo4 W4 C20'
_cell_volume   449.14007158
_cell_formula_units_Z   4
loop_
 _symmetry_equiv_pos_site_id
 _symmetry_equiv_pos_as_xyz
  1  'x, y, z'
loop_
 _atom_site_type_symbol
 _atom_site_label
 _atom_site_symmetry_multiplicity
 _atom_site_fract_x
 _atom_site_fract_y
 _atom_site_fract_z
 _atom_site_occupancy
  Hf  Hf0  1  0.00178390  -0.00023328  0.99583923  1
  Hf  Hf1  1  0.50009113  1.00009904  0.10340406  1
  Hf  Hf2  1  0.50186421  0.50034206  -0.00408954  1
  Hf  Hf3  1  -0.00197986  0.00090116  0.59906744  1
  Sc  Sc4  1  0.00038236  0.49999499  0.10329717  1
  Sc  Sc5  1  1.00043361  0.00001142  0.20650200  1
  Sc  Sc6  1  0.49813261  0.00026149  0.30583843  1
  Sc  Sc7  1  0.99886309  -0.00474454  0.79400582  1
  Ti  Ti8  1  0.50108197  0.49947571  0.20728743  1
  Ti  Ti9  1  0.00013228  0.49905187  0.49972467  1
  Ti  Ti10  1  0.99589387  0.49872889  0.69855057  1
  Ti  Ti11  1  0.49600387  0.99976296  0.69875527  1
  Mo  Mo12  1  0.98362760  0.51243784  0.30517004  1
  Mo  Mo13  1  1.01595495  1.02576045  0.40305646  1
  Mo  Mo14  1  0.47799048  0.50654476  0.40129784  1
  Mo  Mo15  1  0.51547773  -0.01227841  0.88979244  1
  W  W16  1  0.51039821  1.02214235  0.49754849  1
  W  W17  1  0.48715607  0.51167844  0.60031479  1
  W  W18  1  0.01515197  0.48274802  0.89154057  1
  W  W19  1  0.49883006  0.48481068  0.79633335  1
  C  C20  1  1.00008174  0.99994382  0.09856179  1
  C  C21  1  0.00053442  0.50127312  -0.00977880  1
  C  C22  1  0.50042092  1.00131780  0.99294875  1
  C  C23  1  0.50033194  0.50000466  0.10476890  1
  C  C24  1  0.99787299  -0.01282215  0.31195470  1
  C  C25  1  0.00218109  0.49882069  0.21334965  1
  C  C26  1  0.50049906  0.99866842  0.20414779  1
  C  C27  1  0.50759916  0.49868403  0.30811051  1
  C  C28  1  0.99341101  0.99346078  0.49814168  1
  C  C29  1  0.00591892  0.49337733  0.40632210  1
  C  C30  1  0.50259706  0.98627015  0.40735572  1
  C  C31  1  0.50506581  0.49353871  0.50362907  1
  C  C32  1  1.00073516  -0.00010616  0.69631691  1
  C  C33  1  0.00832925  0.49867813  0.59895359  1
  C  C34  1  0.49916427  0.99009867  0.59858816  1
  C  C35  1  0.50203926  0.49858469  0.69763390  1
  C  C36  1  0.98806305  0.01179376  0.89428035  1
  C  C37  1  -0.00178734  0.49947034  0.79525200  1
  C  C38  1  0.49870170  0.00549588  0.79536241  1
  C  C39  1  0.49259834  0.51567608  0.89104782  1
