# generated using pymatgen
data_HfTiVMoWC5
_symmetry_space_group_name_H-M   'P 1'
_cell_length_a   4.38564657
_cell_length_b   4.38538162
_cell_length_c   21.93131554
_cell_angle_alpha   90.01360998
_cell_angle_beta   90.00535625
_cell_angle_gamma   89.99309353
_symmetry_Int_Tables_number   1
_chemical_formula_structural   HfTiVMoWC5
_chemical_formula_sum   'Hf4 Ti4 V4 Mo4 W4 C20'
_cell_volume   421.79913825
_cell_formula_units_Z   4
loop_
 _symmetry_equiv_pos_site_id
 _symmetry_equiv_pos_as_xyz
  1  'x, y, z'
loop_
 _atom_site_type_symbol
 _atom_site_label
 _atom_site_symmetry_multiplicity
 _atom_site_fract_x
 _atom_site_fract_y
 _atom_site_fract_z
 _atom_site_occupancy
  Hf  Hf0  1  0.49735785  1.00359287  0.10628731  1
  Hf  Hf1  1  0.49833531  0.49887915  1.00294268  1
  Hf  Hf2  1  0.99736478  1.00032116  0.39796984  1
  Hf  Hf3  1  0.50016408  0.50065661  0.59847328  1
  Ti  Ti4  1  0.99915957  0.00025164  0.60045492  1
  Ti  Ti5  1  0.50094015  1.00113119  0.70037505  1
  Ti  Ti6  1  -0.00071977  0.49901449  0.89863282  1
  Ti  Ti7  1  0.50099011  0.49996620  0.79976729  1
  V  V8  1  0.99329530  0.49620974  0.10620522  1
  V  V9  1  0.48899465  -0.01536191  0.29855610  1
  V  V10  1  0.49275214  0.51563354  0.20529770  1
  V  V11  1  0.50460658  0.49657007  0.39480856  1
  Mo  Mo12  1  0.00669647  0.98330889  -0.00321472  1
  Mo  Mo13  1  0.98872936  0.97992830  0.20433040  1
  Mo  Mo14  1  0.98628554  0.51268175  0.49530655  1
  Mo  Mo15  1  0.01363005  0.00104979  0.79751439  1
  W  W16  1  0.02962102  0.49587621  0.29295117  1
  W  W17  1  0.48468303  0.01629026  0.49677287  1
  W  W18  1  0.01025055  0.50377857  0.70560983  1
  W  W19  1  0.51977585  0.98918239  0.89457506  1
  C  C20  1  -0.00217520  0.01177579  0.10159353  1
  C  C21  1  -0.00243539  0.50951663  1.00484091  1
  C  C22  1  0.49029929  1.00149227  -0.00356392  1
  C  C23  1  0.50548977  0.50338567  0.10899433  1
  C  C24  1  1.00286485  1.00048347  0.29747103  1
  C  C25  1  0.00616288  0.50126389  0.19881945  1
  C  C26  1  0.50207562  0.99910441  0.20771874  1
  C  C27  1  0.50523704  0.50248813  0.30050318  1
  C  C28  1  0.00416478  0.99385829  0.50351792  1
  C  C29  1  -0.00481585  0.49963933  0.39755912  1
  C  C30  1  0.49835398  -0.00015218  0.39651795  1
  C  C31  1  0.50610834  0.49538882  0.49091538  1
  C  C32  1  -0.00417123  0.99774718  0.70018269  1
  C  C33  1  -0.00005111  0.49812557  0.60137071  1
  C  C34  1  0.50027473  0.99992647  0.59798525  1
  C  C35  1  0.49867198  0.50032371  0.70297316  1
  C  C36  1  -0.00451513  0.00533777  0.90101499  1
  C  C37  1  0.99579927  0.50017675  0.80137220  1
  C  C38  1  0.49215776  0.00169174  0.79900997  1
  C  C39  1  0.49742712  0.50202959  0.89741695  1
