# generated using pymatgen
data_HfTiNbCrWC5
_symmetry_space_group_name_H-M   'P 1'
_cell_length_a   4.41227996
_cell_length_b   4.41463269
_cell_length_c   21.99978750
_cell_angle_alpha   90.01539303
_cell_angle_beta   90.00090337
_cell_angle_gamma   89.99622258
_symmetry_Int_Tables_number   1
_chemical_formula_structural   HfTiNbCrWC5
_chemical_formula_sum   'Hf4 Ti4 Nb4 Cr4 W4 C20'
_cell_volume   428.52494248
_cell_formula_units_Z   4
loop_
 _symmetry_equiv_pos_site_id
 _symmetry_equiv_pos_as_xyz
  1  'x, y, z'
loop_
 _atom_site_type_symbol
 _atom_site_label
 _atom_site_symmetry_multiplicity
 _atom_site_fract_x
 _atom_site_fract_y
 _atom_site_fract_z
 _atom_site_occupancy
  Hf  Hf0  1  0.99802369  0.00235357  0.99843951  1
  Hf  Hf1  1  0.49816115  0.50037265  -0.00086809  1
  Hf  Hf2  1  1.00357115  0.49904838  0.69896164  1
  Hf  Hf3  1  0.49642530  -0.00154574  0.88983074  1
  Ti  Ti4  1  0.99990267  0.00003216  0.40956999  1
  Ti  Ti5  1  1.00049069  0.50029062  0.50305840  1
  Ti  Ti6  1  0.00143210  1.00306422  0.60001255  1
  Ti  Ti7  1  0.50064566  0.49870517  0.79182829  1
  Nb  Nb8  1  -0.00067216  1.00216886  0.19900759  1
  Nb  Nb9  1  1.00244821  0.49808847  0.30589386  1
  Nb  Nb10  1  0.49758521  0.50009071  0.19885141  1
  Nb  Nb11  1  0.50012961  0.49828369  0.40768494  1
  Cr  Cr12  1  0.49045555  0.00795531  0.10129679  1
  Cr  Cr13  1  0.47989741  0.99487843  0.50631317  1
  Cr  Cr14  1  0.51289294  0.00919665  0.69891908  1
  Cr  Cr15  1  0.98643757  0.98794728  0.79129305  1
  W  W16  1  0.98560881  0.51896209  0.10338009  1
  W  W17  1  0.51484786  0.98385452  0.30910047  1
  W  W18  1  0.50651005  0.52720533  0.59826233  1
  W  W19  1  -0.00566027  0.49553064  0.88832133  1
  C  C20  1  0.01444741  0.99900215  0.10147448  1
  C  C21  1  -0.00066704  0.50242475  0.99860742  1
  C  C22  1  0.49819637  1.00047624  0.00504026  1
  C  C23  1  0.50487569  0.48510038  0.10190104  1
  C  C24  1  0.99868475  -0.00072637  0.30518215  1
  C  C25  1  1.00047105  0.49908950  0.20120954  1
  C  C26  1  0.50001210  -0.00056566  0.19949304  1
  C  C27  1  0.49982972  0.50017832  0.30334872  1
  C  C28  1  0.01400166  1.00005549  0.50401407  1
  C  C29  1  0.99908985  0.49847405  0.40563635  1
  C  C30  1  0.50047090  0.99919282  0.40804127  1
  C  C31  1  0.49927052  0.50059592  0.50510994  1
  C  C32  1  0.99422690  0.99939066  0.70057500  1
  C  C33  1  0.99565185  0.49925820  0.59780927  1
  C  C34  1  0.49831830  -0.00080228  0.60069442  1
  C  C35  1  0.50227195  0.48587649  0.69576625  1
  C  C36  1  -0.00108726  0.00265296  0.88870900  1
  C  C37  1  1.00206035  0.50853146  0.79836733  1
  C  C38  1  0.50818581  0.99771453  0.78721965  1
  C  C39  1  0.50246300  0.49902615  0.89349004  1
