# generated using pymatgen
data_HfTiNbCoWC5
_symmetry_space_group_name_H-M   'P 1'
_cell_length_a   4.43515203
_cell_length_b   4.43254868
_cell_length_c   21.86096325
_cell_angle_alpha   90.07716057
_cell_angle_beta   90.04988704
_cell_angle_gamma   90.00079591
_symmetry_Int_Tables_number   1
_chemical_formula_structural   HfTiNbCoWC5
_chemical_formula_sum   'Hf4 Ti4 Nb4 Co4 W4 C20'
_cell_volume   429.76471994
_cell_formula_units_Z   4
loop_
 _symmetry_equiv_pos_site_id
 _symmetry_equiv_pos_as_xyz
  1  'x, y, z'
loop_
 _atom_site_type_symbol
 _atom_site_label
 _atom_site_symmetry_multiplicity
 _atom_site_fract_x
 _atom_site_fract_y
 _atom_site_fract_z
 _atom_site_occupancy
  Hf  Hf0  1  0.00024612  0.99885086  -0.00250221  1
  Hf  Hf1  1  0.99945175  0.50081402  0.10661435  1
  Hf  Hf2  1  0.50060989  0.49863274  -0.00190876  1
  Hf  Hf3  1  1.00471322  1.00929429  0.60512888  1
  Ti  Ti4  1  0.49899417  -0.00007577  0.10611393  1
  Ti  Ti5  1  0.50117822  0.50225231  0.20680667  1
  Ti  Ti6  1  0.49710890  0.50060741  0.60288634  1
  Ti  Ti7  1  0.00454014  -0.00317460  0.79235791  1
  Nb  Nb8  1  1.00242406  0.99721430  0.40173467  1
  Nb  Nb9  1  0.50109050  -0.00105183  0.50328366  1
  Nb  Nb10  1  0.50910009  0.49607069  0.40179634  1
  Nb  Nb11  1  0.49593276  0.48901002  0.78959974  1
  Co  Co12  1  0.05349015  0.54159446  0.30248946  1
  Co  Co13  1  0.95981096  0.53372168  0.51216011  1
  Co  Co14  1  -0.02770081  0.52380302  0.69845000  1
  Co  Co15  1  0.54201937  0.95261100  0.69839145  1
  W  W16  1  -0.01072173  0.02113290  0.20816444  1
  W  W17  1  0.48820713  0.01575536  0.30086797  1
  W  W18  1  1.01217905  0.49502575  0.88805497  1
  W  W19  1  0.50697219  0.99065881  0.88843937  1
  C  C20  1  0.00100316  -0.00178957  0.10612265  1
  C  C21  1  1.00011694  0.49872164  -0.00645008  1
  C  C22  1  0.49946576  0.99925378  -0.00418758  1
  C  C23  1  0.49956824  0.49905529  0.10527990  1
  C  C24  1  0.99676748  0.96205948  0.30140155  1
  C  C25  1  0.99909955  0.49587224  0.21209488  1
  C  C26  1  0.50237684  -0.00067309  0.20310101  1
  C  C27  1  0.47408816  0.49354468  0.30166059  1
  C  C28  1  1.00351568  0.96372819  0.50066016  1
  C  C29  1  0.00209072  0.49190649  0.39296712  1
  C  C30  1  0.50370406  -0.00146541  0.40060353  1
  C  C31  1  0.53616227  0.49534791  0.50364494  1
  C  C32  1  0.96023226  0.99061831  0.70287622  1
  C  C33  1  0.00053826  0.50663469  0.59974629  1
  C  C34  1  0.50047974  1.00692848  0.60700515  1
  C  C35  1  0.50673637  0.53504966  0.69569330  1
  C  C36  1  0.98900733  1.00155862  0.89280571  1
  C  C37  1  -0.00221690  0.49539227  0.79096848  1
  C  C38  1  0.49769501  -0.00450238  0.79186237  1
  C  C39  1  0.49173937  0.50626747  0.89390295  1
