# generated using pymatgen
data_HfTiNbMoWC5
_symmetry_space_group_name_H-M   'P 1'
_cell_length_a   4.45599576
_cell_length_b   4.45787354
_cell_length_c   22.25079235
_cell_angle_alpha   90.01479897
_cell_angle_beta   89.98423467
_cell_angle_gamma   90.00472187
_symmetry_Int_Tables_number   1
_chemical_formula_structural   HfTiNbMoWC5
_chemical_formula_sum   'Hf4 Ti4 Nb4 Mo4 W4 C20'
_cell_volume   441.99561614
_cell_formula_units_Z   4
loop_
 _symmetry_equiv_pos_site_id
 _symmetry_equiv_pos_as_xyz
  1  'x, y, z'
loop_
 _atom_site_type_symbol
 _atom_site_label
 _atom_site_symmetry_multiplicity
 _atom_site_fract_x
 _atom_site_fract_y
 _atom_site_fract_z
 _atom_site_occupancy
  Hf  Hf0  1  1.00548414  0.49917690  0.49441432  1
  Hf  Hf1  1  1.00038158  0.99955465  0.59933691  1
  Hf  Hf2  1  0.49808069  -0.00159380  0.70449685  1
  Hf  Hf3  1  0.50103884  0.50005789  0.59899064  1
  Ti  Ti4  1  1.00134712  -0.00195888  0.20183668  1
  Ti  Ti5  1  0.49857839  0.00091898  0.29585681  1
  Ti  Ti6  1  1.00011700  0.99967627  0.80497711  1
  Ti  Ti7  1  1.00108704  0.49920482  0.89958984  1
  Nb  Nb8  1  1.00052839  0.99893966  0.00210073  1
  Nb  Nb9  1  1.00273855  0.49690190  0.10381335  1
  Nb  Nb10  1  0.50104497  0.49961796  1.00186636  1
  Nb  Nb11  1  0.50052294  0.99886851  0.90073155  1
  Mo  Mo12  1  0.48626462  0.02532455  0.10812210  1
  Mo  Mo13  1  0.48510180  0.48208709  0.19939189  1
  Mo  Mo14  1  0.51219223  0.98812546  0.48843273  1
  Mo  Mo15  1  0.48309363  0.51204490  0.80610401  1
  W  W16  1  0.97773224  0.51763310  0.29522520  1
  W  W17  1  0.97132424  1.00036229  0.39240751  1
  W  W18  1  0.52795944  0.48531749  0.39323596  1
  W  W19  1  0.99139831  0.49137580  0.70814776  1
  C  C20  1  1.00619203  -0.00148528  0.10419112  1
  C  C21  1  0.00200281  0.49966800  1.00005605  1
  C  C22  1  0.50202034  0.99828302  1.00442471  1
  C  C23  1  0.50498652  0.49911869  0.10299873  1
  C  C24  1  0.00318463  1.00227298  0.29834021  1
  C  C25  1  0.00753925  0.50107324  0.20233712  1
  C  C26  1  0.50396984  0.00343637  0.20198466  1
  C  C27  1  0.49761626  0.50326807  0.29916087  1
  C  C28  1  0.99742411  1.00050911  0.49238684  1
  C  C29  1  0.00619291  0.49422412  0.39226603  1
  C  C30  1  0.49277157  0.00350583  0.39458187  1
  C  C31  1  0.50217187  0.50788632  0.49240035  1
  C  C32  1  1.00015682  0.00688586  0.70474323  1
  C  C33  1  1.00230314  0.50062359  0.60423201  1
  C  C34  1  0.49959873  0.00034031  0.59399862  1
  C  C35  1  0.50772271  0.50009989  0.70429048  1
  C  C36  1  1.00111038  0.00017577  0.90068831  1
  C  C37  1  0.00869057  0.49940209  0.80297836  1
  C  C38  1  0.50290259  -0.00700645  0.80402549  1
  C  C39  1  0.50371766  0.49801316  0.90103249  1
