# generated using pymatgen
data_HfTiMnNbWC5
_symmetry_space_group_name_H-M   'P 1'
_cell_length_a   4.47481366
_cell_length_b   4.48362101
_cell_length_c   21.75241945
_cell_angle_alpha   90.03185456
_cell_angle_beta   90.29700896
_cell_angle_gamma   90.24769436
_symmetry_Int_Tables_number   1
_chemical_formula_structural   HfTiMnNbWC5
_chemical_formula_sum   'Hf4 Ti4 Mn4 Nb4 W4 C20'
_cell_volume   436.41679284
_cell_formula_units_Z   4
loop_
 _symmetry_equiv_pos_site_id
 _symmetry_equiv_pos_as_xyz
  1  'x, y, z'
loop_
 _atom_site_type_symbol
 _atom_site_label
 _atom_site_symmetry_multiplicity
 _atom_site_fract_x
 _atom_site_fract_y
 _atom_site_fract_z
 _atom_site_occupancy
  Hf  Hf0  1  0.00202061  0.49509220  0.09561785  1
  Hf  Hf1  1  0.50668982  0.49874641  0.20329201  1
  Hf  Hf2  1  1.01357097  0.49663770  0.50390002  1
  Hf  Hf3  1  0.50594337  1.00407595  0.89805884  1
  Ti  Ti4  1  0.49745539  0.50524486  -0.00496798  1
  Ti  Ti5  1  0.49759159  0.00221156  0.30416449  1
  Ti  Ti6  1  0.50640103  -0.00364930  0.50344741  1
  Ti  Ti7  1  0.99858179  0.50374829  0.89656592  1
  Mn  Mn8  1  1.03990728  0.95953821  -0.00452017  1
  Mn  Mn9  1  0.04470427  0.45381348  0.30259281  1
  Mn  Mn10  1  -0.07478196  0.53684555  0.70074568  1
  Mn  Mn11  1  0.54803710  0.45404180  0.60145328  1
  Nb  Nb12  1  0.50416939  -0.00127560  0.09666960  1
  Nb  Nb13  1  1.00278808  0.99593618  0.20230496  1
  Nb  Nb14  1  -0.00025861  -0.00701502  0.40004280  1
  Nb  Nb15  1  0.00666093  -0.00423441  0.60564190  1
  W  W16  1  0.51430840  0.50929274  0.40184789  1
  W  W17  1  0.50495101  0.97936254  0.69890428  1
  W  W18  1  0.00684540  0.03148474  0.79814923  1
  W  W19  1  0.46293539  0.50053790  0.79387657  1
  C  C20  1  0.00020198  -0.00246680  0.09251190  1
  C  C21  1  -0.00646242  0.54053989  0.99292447  1
  C  C22  1  0.46189157  0.00806892  -0.00165788  1
  C  C23  1  0.50310742  0.49728315  0.09634424  1
  C  C24  1  0.99662686  0.03273004  0.30120397  1
  C  C25  1  1.00465719  0.49840590  0.20687635  1
  C  C26  1  0.50322293  -0.00277953  0.20278479  1
  C  C27  1  0.46497547  0.50425572  0.30661774  1
  C  C28  1  0.00826703  -0.00381479  0.50242798  1
  C  C29  1  0.99418522  0.49778577  0.39604540  1
  C  C30  1  0.50067820  -0.00573571  0.40323231  1
  C  C31  1  0.50993135  0.49736250  0.50643603  1
  C  C32  1  1.00209707  0.97869201  0.70390465  1
  C  C33  1  0.97187251  0.49694565  0.60826974  1
  C  C34  1  0.49877470  0.02864449  0.60242184  1
  C  C35  1  0.51216429  0.49694995  0.69647336  1
  C  C36  1  1.00203393  0.00552200  0.90079035  1
  C  C37  1  0.98849135  0.50820511  0.79461851  1
  C  C38  1  0.49220174  1.01281100  0.79542541  1
  C  C39  1  0.50148951  0.50335179  0.89473643  1
