# generated using pymatgen
data_HfMgTiNbWC5
_symmetry_space_group_name_H-M   'P 1'
_cell_length_a   4.46803929
_cell_length_b   4.46910378
_cell_length_c   22.50647203
_cell_angle_alpha   90.01454190
_cell_angle_beta   89.99694604
_cell_angle_gamma   89.99673855
_symmetry_Int_Tables_number   1
_chemical_formula_structural   HfMgTiNbWC5
_chemical_formula_sum   'Hf4 Mg4 Ti4 Nb4 W4 C20'
_cell_volume   449.41217220
_cell_formula_units_Z   4
loop_
 _symmetry_equiv_pos_site_id
 _symmetry_equiv_pos_as_xyz
  1  'x, y, z'
loop_
 _atom_site_type_symbol
 _atom_site_label
 _atom_site_symmetry_multiplicity
 _atom_site_fract_x
 _atom_site_fract_y
 _atom_site_fract_z
 _atom_site_occupancy
  Hf  Hf0  1  1.00066839  -0.00081487  0.19864610  1
  Hf  Hf1  1  0.99796209  0.49908117  0.30310397  1
  Hf  Hf2  1  0.50090863  0.49990377  0.19931804  1
  Hf  Hf3  1  1.00127693  0.00007593  0.59758846  1
  Mg  Mg4  1  0.99828897  0.50223593  0.50349753  1
  Mg  Mg5  1  0.99972143  0.00016258  0.80488543  1
  Mg  Mg6  1  0.99931024  0.50059724  0.89400035  1
  Mg  Mg7  1  0.49969117  0.50037255  0.80285648  1
  Ti  Ti8  1  -0.00135844  0.99967129  0.99347853  1
  Ti  Ti9  1  0.49968187  0.99699091  0.49977045  1
  Ti  Ti10  1  0.50182347  0.49978015  0.59837441  1
  Ti  Ti11  1  0.49927810  0.00069232  0.89453111  1
  Nb  Nb12  1  0.50117550  -0.00170471  0.09417745  1
  Nb  Nb13  1  0.49996702  0.50152878  -0.00638876  1
  Nb  Nb14  1  0.99959625  0.49995807  0.70491518  1
  Nb  Nb15  1  0.50002729  1.00003183  0.70744115  1
  W  W16  1  0.01242085  0.48576538  0.09274774  1
  W  W17  1  0.49063828  0.99065780  0.30760963  1
  W  W18  1  0.98749554  0.01615860  0.40712174  1
  W  W19  1  0.48800085  0.48622697  0.40905752  1
  C  C20  1  1.00040992  0.00204021  0.09651100  1
  C  C21  1  0.99843361  0.50324945  0.00170905  1
  C  C22  1  0.50009338  1.00164866  0.99831638  1
  C  C23  1  0.49795281  0.49973704  0.09875037  1
  C  C24  1  0.00967854  -0.00035254  0.30340753  1
  C  C25  1  -0.00046517  0.50071559  0.19542376  1
  C  C26  1  0.50142305  1.00106113  0.20358617  1
  C  C27  1  0.50160033  0.50977150  0.30464805  1
  C  C28  1  0.00298344  0.99950485  0.49605342  1
  C  C29  1  0.00444418  0.49759734  0.40096677  1
  C  C30  1  0.50547895  0.00269723  0.40071034  1
  C  C31  1  0.49992685  0.50043733  0.49817321  1
  C  C32  1  1.00030088  0.99984621  0.69961839  1
  C  C33  1  0.00063632  0.49984974  0.60015204  1
  C  C34  1  0.50158078  -0.00059019  0.59598633  1
  C  C35  1  0.49979271  0.49959885  0.69558726  1
  C  C36  1  0.99984352  0.00082748  0.90483894  1
  C  C37  1  -0.00025283  0.50020830  0.79549836  1
  C  C38  1  0.49975149  1.00032539  0.80153752  1
  C  C39  1  0.49925830  0.50098550  0.90175076  1
