# generated using pymatgen
data_HfTiNbNiWC5
_symmetry_space_group_name_H-M   'P 1'
_cell_length_a   4.41937824
_cell_length_b   4.41002287
_cell_length_c   22.04272044
_cell_angle_alpha   90.00582474
_cell_angle_beta   89.98889507
_cell_angle_gamma   89.99767170
_symmetry_Int_Tables_number   1
_chemical_formula_structural   HfTiNbNiWC5
_chemical_formula_sum   'Hf4 Ti4 Nb4 Ni4 W4 C20'
_cell_volume   429.60289184
_cell_formula_units_Z   4
loop_
 _symmetry_equiv_pos_site_id
 _symmetry_equiv_pos_as_xyz
  1  'x, y, z'
loop_
 _atom_site_type_symbol
 _atom_site_label
 _atom_site_symmetry_multiplicity
 _atom_site_fract_x
 _atom_site_fract_y
 _atom_site_fract_z
 _atom_site_occupancy
  Hf  Hf0  1  0.49973401  0.49621175  0.20473044  1
  Hf  Hf1  1  1.00044156  0.49953535  0.50483869  1
  Hf  Hf2  1  0.49936023  0.49936633  0.40886128  1
  Hf  Hf3  1  0.99585000  0.50198339  0.89648184  1
  Ti  Ti4  1  0.99995169  1.00009920  1.00195404  1
  Ti  Ti5  1  1.00004349  0.99930467  0.20687475  1
  Ti  Ti6  1  0.99759429  0.49814836  0.30740630  1
  Ti  Ti7  1  0.00032128  0.99989656  0.59651546  1
  Nb  Nb8  1  0.50012183  0.49756357  0.00237875  1
  Nb  Nb9  1  0.50043612  -0.00115872  0.68548800  1
  Nb  Nb10  1  0.00043024  0.99998108  0.78886007  1
  Nb  Nb11  1  0.49997465  0.49974747  0.78652166  1
  Ni  Ni12  1  0.99950355  0.99948792  0.40435986  1
  Ni  Ni13  1  0.49968896  0.00019846  0.50347366  1
  Ni  Ni14  1  0.99945269  0.50005154  0.69408050  1
  Ni  Ni15  1  0.50191564  0.49974602  0.59895992  1
  W  W16  1  0.01460747  0.52855620  0.10213949  1
  W  W17  1  0.51947107  1.00055480  0.10019504  1
  W  W18  1  0.48900417  0.99764674  0.31247965  1
  W  W19  1  0.49170288  0.00849406  0.89478464  1
  C  C20  1  0.99598231  0.00327307  0.10236879  1
  C  C21  1  -0.00253192  0.49819533  1.00385361  1
  C  C22  1  0.49720756  -0.00373586  1.00075769  1
  C  C23  1  0.49539092  0.49039083  0.10008191  1
  C  C24  1  0.00216394  0.99863066  0.30499818  1
  C  C25  1  0.99906879  0.49758867  0.20188473  1
  C  C26  1  0.49965630  0.99637378  0.20196377  1
  C  C27  1  0.50011917  0.49828483  0.30448448  1
  C  C28  1  0.00457172  0.99944224  0.49736189  1
  C  C29  1  -0.00066309  0.49878888  0.40064440  1
  C  C30  1  0.49950586  -0.00069987  0.40320186  1
  C  C31  1  0.50080348  0.49928542  0.51005469  1
  C  C32  1  1.00045806  -0.00024496  0.69318061  1
  C  C33  1  0.99880797  0.49981113  0.60537700  1
  C  C34  1  0.50109036  0.99954020  0.59090549  1
  C  C35  1  0.49938835  0.49962914  0.69096683  1
  C  C36  1  0.00042272  1.00089105  0.89992476  1
  C  C37  1  0.99919442  0.50002315  0.79077517  1
  C  C38  1  0.50009938  -0.00076099  0.79759881  1
  C  C39  1  0.49722490  0.49672993  0.89816857  1
