# generated using pymatgen
data_HfScTiNbWC5
_symmetry_space_group_name_H-M   'P 1'
_cell_length_a   4.49971056
_cell_length_b   4.50119119
_cell_length_c   22.53439286
_cell_angle_alpha   89.98706031
_cell_angle_beta   89.98899172
_cell_angle_gamma   89.99978476
_symmetry_Int_Tables_number   1
_chemical_formula_structural   HfScTiNbWC5
_chemical_formula_sum   'Hf4 Sc4 Ti4 Nb4 W4 C20'
_cell_volume   456.41286901
_cell_formula_units_Z   4
loop_
 _symmetry_equiv_pos_site_id
 _symmetry_equiv_pos_as_xyz
  1  'x, y, z'
loop_
 _atom_site_type_symbol
 _atom_site_label
 _atom_site_symmetry_multiplicity
 _atom_site_fract_x
 _atom_site_fract_y
 _atom_site_fract_z
 _atom_site_occupancy
  Hf  Hf0  1  1.00404915  0.50246386  0.29707417  1
  Hf  Hf1  1  0.49781437  0.00368340  0.69678656  1
  Hf  Hf2  1  1.00002481  0.99992478  0.80194158  1
  Hf  Hf3  1  0.49981843  0.49994372  0.80180143  1
  Sc  Sc4  1  0.00178234  -0.00532934  0.19628679  1
  Sc  Sc5  1  0.00054172  1.00036774  0.40006685  1
  Sc  Sc6  1  1.00011333  0.49948102  0.49963052  1
  Sc  Sc7  1  -0.00002574  0.49971240  0.90560956  1
  Ti  Ti8  1  0.99888621  1.00067280  0.00424123  1
  Ti  Ti9  1  0.49870975  -0.00159909  0.10114120  1
  Ti  Ti10  1  0.50003409  -0.00036627  0.50089979  1
  Ti  Ti11  1  0.99925076  -0.00006386  0.59709247  1
  Nb  Nb12  1  0.49909779  0.50031288  0.00583382  1
  Nb  Nb13  1  0.50069179  0.50076482  0.39972535  1
  Nb  Nb14  1  0.49876132  0.49988500  0.59698305  1
  Nb  Nb15  1  0.50003369  0.99966517  0.90768236  1
  W  W16  1  0.00303193  0.50408045  0.09955489  1
  W  W17  1  0.51517909  0.00890655  0.29964092  1
  W  W18  1  0.51215163  0.47539378  0.19556286  1
  W  W19  1  0.99063529  0.51302646  0.69503930  1
  C  C20  1  0.00025569  -0.00134563  0.09710115  1
  C  C21  1  -0.00194054  0.49871382  0.00718558  1
  C  C22  1  0.49978135  0.00101732  0.00575507  1
  C  C23  1  0.49504755  0.50462385  0.10346673  1
  C  C24  1  0.98844893  1.00126763  0.29696998  1
  C  C25  1  0.99221925  0.49696369  0.19405580  1
  C  C26  1  0.49775754  0.00720377  0.19902669  1
  C  C27  1  0.49893346  0.50321461  0.29366154  1
  C  C28  1  0.00045689  0.99924189  0.50475081  1
  C  C29  1  0.99979219  0.50024760  0.39699352  1
  C  C30  1  0.49916435  0.00137449  0.39553264  1
  C  C31  1  0.50011768  0.50021123  0.49758271  1
  C  C32  1  0.00005079  -0.00672533  0.69730388  1
  C  C33  1  1.00249441  0.49732348  0.60304534  1
  C  C34  1  0.50037115  0.99939037  0.59577818  1
  C  C35  1  0.50604083  0.50104922  0.69792832  1
  C  C36  1  1.00023407  -0.00050358  0.90634891  1
  C  C37  1  0.00163037  0.49755093  0.79560558  1
  C  C38  1  0.50004730  -0.00001429  0.80387542  1
  C  C39  1  0.49994564  0.50033902  0.90546472  1
