# generated using pymatgen
data_HfTaTiNbWC5
_symmetry_space_group_name_H-M   'P 1'
_cell_length_a   4.47361225
_cell_length_b   4.47495812
_cell_length_c   22.37058101
_cell_angle_alpha   90.00310245
_cell_angle_beta   90.00418052
_cell_angle_gamma   89.99821233
_symmetry_Int_Tables_number   1
_chemical_formula_structural   HfTaTiNbWC5
_chemical_formula_sum   'Hf4 Ta4 Ti4 Nb4 W4 C20'
_cell_volume   447.84174848
_cell_formula_units_Z   4
loop_
 _symmetry_equiv_pos_site_id
 _symmetry_equiv_pos_as_xyz
  1  'x, y, z'
loop_
 _atom_site_type_symbol
 _atom_site_label
 _atom_site_symmetry_multiplicity
 _atom_site_fract_x
 _atom_site_fract_y
 _atom_site_fract_z
 _atom_site_occupancy
  Hf  Hf0  1  -0.00036032  1.00043812  0.19552811  1
  Hf  Hf1  1  -0.00035688  0.49978252  0.49731648  1
  Hf  Hf2  1  0.00013051  0.50071071  0.70565640  1
  Hf  Hf3  1  0.50103624  0.99978013  0.70525835  1
  Ta  Ta4  1  0.50009688  0.99955755  0.29956343  1
  Ta  Ta5  1  0.49976220  0.49983329  0.19833939  1
  Ta  Ta6  1  -0.00106923  0.00008785  0.39616511  1
  Ta  Ta7  1  0.50006165  0.50013070  0.60063338  1
  Ti  Ti8  1  0.49899387  0.99815670  0.09537415  1
  Ti  Ti9  1  0.50107556  0.49979362  0.39679388  1
  Ti  Ti10  1  0.99980306  0.50161328  0.90064140  1
  Ti  Ti11  1  0.50165544  0.50087285  0.80698749  1
  Nb  Nb12  1  0.99932391  0.49930439  0.09263984  1
  Nb  Nb13  1  0.49969733  -0.00031645  0.49828117  1
  Nb  Nb14  1  0.00015825  0.00020423  0.60004506  1
  Nb  Nb15  1  0.50061570  0.99997581  0.90279817  1
  W  W16  1  -0.01050662  0.01140605  0.99928447  1
  W  W17  1  0.48619279  0.50885112  0.99871411  1
  W  W18  1  0.01663199  0.50862589  0.30064499  1
  W  W19  1  0.00999730  0.00732291  0.80867914  1
  C  C20  1  0.00135275  -0.00112340  0.09431812  1
  C  C21  1  0.00472652  0.49412308  -0.00319773  1
  C  C22  1  0.50604361  0.99262090  0.00204088  1
  C  C23  1  0.50073475  0.49854739  0.09734385  1
  C  C24  1  -0.00156946  0.99630281  0.29909804  1
  C  C25  1  0.99860084  0.49950011  0.19930365  1
  C  C26  1  0.50007929  0.99989149  0.19767379  1
  C  C27  1  0.49648004  0.49791945  0.29864984  1
  C  C28  1  0.99977832  0.99955815  0.49786247  1
  C  C29  1  0.99694348  0.49912202  0.39498859  1
  C  C30  1  0.49879693  0.00023896  0.39686989  1
  C  C31  1  0.49933366  0.49997966  0.49764328  1
  C  C32  1  0.99972380  0.99963640  0.70642701  1
  C  C33  1  -0.00016369  0.49997118  0.60067624  1
  C  C34  1  0.49986958  0.00030145  0.59966019  1
  C  C35  1  0.49981377  0.49960851  0.70306783  1
  C  C36  1  0.00035441  0.99778485  0.90291962  1
  C  C37  1  0.99848260  0.49587958  0.80683437  1
  C  C38  1  0.49654527  0.99747780  0.80568145  1
  C  C39  1  0.50129356  0.49892084  0.90295951  1
