# generated using pymatgen
data_HfTiNbVWC5
_symmetry_space_group_name_H-M   'P 1'
_cell_length_a   4.43028471
_cell_length_b   4.43142762
_cell_length_c   22.04881583
_cell_angle_alpha   89.98170011
_cell_angle_beta   89.98946915
_cell_angle_gamma   89.99223835
_symmetry_Int_Tables_number   1
_chemical_formula_structural   HfTiNbVWC5
_chemical_formula_sum   'Hf4 Ti4 Nb4 V4 W4 C20'
_cell_volume   432.87303526
_cell_formula_units_Z   4
loop_
 _symmetry_equiv_pos_site_id
 _symmetry_equiv_pos_as_xyz
  1  'x, y, z'
loop_
 _atom_site_type_symbol
 _atom_site_label
 _atom_site_symmetry_multiplicity
 _atom_site_fract_x
 _atom_site_fract_y
 _atom_site_fract_z
 _atom_site_occupancy
  Hf  Hf0  1  0.00079046  0.49941689  0.49544137  1
  Hf  Hf1  1  0.50100484  0.99917242  0.49705856  1
  Hf  Hf2  1  0.50105036  0.50080106  0.38742466  1
  Hf  Hf3  1  0.49962831  0.49810536  0.60348616  1
  Ti  Ti4  1  1.00268629  0.99581039  1.00572185  1
  Ti  Ti5  1  1.00069304  0.49648578  0.10365814  1
  Ti  Ti6  1  0.50029678  0.99877533  0.10244051  1
  Ti  Ti7  1  1.00075242  0.99953912  0.60392010  1
  Nb  Nb8  1  0.50150599  0.49960699  0.00422126  1
  Nb  Nb9  1  1.00057578  0.00118532  0.38665077  1
  Nb  Nb10  1  0.50391390  0.99954341  0.70636760  1
  Nb  Nb11  1  0.00361456  0.99419422  0.80917847  1
  V  V12  1  0.99436758  0.98598798  0.19674842  1
  V  V13  1  0.99559247  0.51423809  0.28536609  1
  V  V14  1  0.49448914  0.50617663  0.19606788  1
  V  V15  1  0.98648851  0.47904993  0.90780483  1
  W  W16  1  0.48834366  0.00646014  0.28459803  1
  W  W17  1  0.99240127  0.52272240  0.70542796  1
  W  W18  1  0.52486971  0.02837024  0.90776966  1
  W  W19  1  0.46381027  0.50815902  0.80971016  1
  C  C20  1  1.00127983  0.99733895  0.10286648  1
  C  C21  1  0.00088797  0.49791711  1.00202708  1
  C  C22  1  0.50136656  -0.00270735  1.00338888  1
  C  C23  1  0.50091782  0.49678861  0.10394495  1
  C  C24  1  1.00149269  -0.00382340  0.28867775  1
  C  C25  1  0.00283205  0.50174578  0.19724136  1
  C  C26  1  0.50513060  0.99510779  0.19462986  1
  C  C27  1  0.50510390  0.49991810  0.28699565  1
  C  C28  1  0.00100992  0.99928600  0.49757929  1
  C  C29  1  1.00143813  0.49958959  0.38761831  1
  C  C30  1  0.50124042  0.00028421  0.38857052  1
  C  C31  1  0.50090771  0.49922438  0.49729177  1
  C  C32  1  1.00369059  1.00020765  0.70393293  1
  C  C33  1  0.00020783  0.49817046  0.60659461  1
  C  C34  1  0.50071989  0.99803476  0.60352523  1
  C  C35  1  0.50775544  0.49632633  0.71020593  1
  C  C36  1  1.00410444  0.00237250  0.90717886  1
  C  C37  1  -0.00544612  0.49382078  0.80756941  1
  C  C38  1  0.49943542  0.99193629  0.80775400  1
  C  C39  1  0.50804390  0.50260232  0.90349315  1
