# generated using pymatgen
data_HfScTiNiWC5
_symmetry_space_group_name_H-M   'P 1'
_cell_length_a   4.43730311
_cell_length_b   4.43583230
_cell_length_c   22.28700967
_cell_angle_alpha   89.81492155
_cell_angle_beta   89.90603766
_cell_angle_gamma   89.98566710
_symmetry_Int_Tables_number   1
_chemical_formula_structural   HfScTiNiWC5
_chemical_formula_sum   'Hf4 Sc4 Ti4 Ni4 W4 C20'
_cell_volume   438.67527091
_cell_formula_units_Z   4
loop_
 _symmetry_equiv_pos_site_id
 _symmetry_equiv_pos_as_xyz
  1  'x, y, z'
loop_
 _atom_site_type_symbol
 _atom_site_label
 _atom_site_symmetry_multiplicity
 _atom_site_fract_x
 _atom_site_fract_y
 _atom_site_fract_z
 _atom_site_occupancy
  Hf  Hf0  1  0.50185558  0.00192207  0.09548418  1
  Hf  Hf1  1  1.00184200  0.99936031  0.20238490  1
  Hf  Hf2  1  0.49983784  -0.00153106  0.30787768  1
  Hf  Hf3  1  -0.00126293  0.99334825  0.59616749  1
  Sc  Sc4  1  0.00036928  0.49953350  0.30849306  1
  Sc  Sc5  1  0.50008727  0.49686757  0.40808518  1
  Sc  Sc6  1  1.00149773  0.00273927  0.79970145  1
  Sc  Sc7  1  0.50263414  0.50780948  0.79994343  1
  Ti  Ti8  1  1.00198011  0.50154733  0.09594900  1
  Ti  Ti9  1  0.50640195  0.50201258  0.99541765  1
  Ti  Ti10  1  0.49699683  0.99682102  0.49817896  1
  Ti  Ti11  1  0.49673744  0.49792985  0.59864623  1
  Ni  Ni12  1  -0.00083616  -0.00053683  0.40639066  1
  Ni  Ni13  1  1.00048623  0.48965681  0.50013813  1
  Ni  Ni14  1  0.99547210  0.48411887  0.68879838  1
  Ni  Ni15  1  0.50021498  1.00359345  0.89712717  1
  W  W16  1  0.02187443  0.98989439  -0.00731217  1
  W  W17  1  0.50986877  0.49376873  0.20242839  1
  W  W18  1  0.51523105  0.02603103  0.70095584  1
  W  W19  1  0.01551180  0.48963351  0.89977553  1
  C  C20  1  -0.00131559  1.00485897  0.09405582  1
  C  C21  1  0.99965166  0.50612630  1.00063342  1
  C  C22  1  0.49622159  0.00425055  0.99242588  1
  C  C23  1  0.49699413  0.50292451  0.09794901  1
  C  C24  1  -0.00020284  -0.00034208  0.30870712  1
  C  C25  1  0.99248278  0.50187398  0.19570749  1
  C  C26  1  0.49981097  0.00685688  0.19918136  1
  C  C27  1  0.49916931  0.49986013  0.29491344  1
  C  C28  1  0.99716690  1.00193259  0.49457289  1
  C  C29  1  -0.00004959  0.49892592  0.41318308  1
  C  C30  1  0.49916957  0.99653756  0.40691605  1
  C  C31  1  0.49452859  0.49532034  0.50690740  1
  C  C32  1  0.98794485  1.00529795  0.69697818  1
  C  C33  1  0.99626529  0.49366949  0.59723222  1
  C  C34  1  0.49662615  0.99066788  0.59982987  1
  C  C35  1  0.49308915  0.49164763  0.69488745  1
  C  C36  1  0.98495118  1.00628709  0.90297713  1
  C  C37  1  1.00137871  0.50435784  0.81094597  1
  C  C38  1  0.50018040  0.00576523  0.79339835  1
  C  C39  1  0.49509543  0.50798323  0.90385894  1
