# generated using pymatgen
data_HfTaTiCoWC5
_symmetry_space_group_name_H-M   'P 1'
_cell_length_a   4.43953356
_cell_length_b   4.45011619
_cell_length_c   21.65728009
_cell_angle_alpha   90.09283885
_cell_angle_beta   89.88233686
_cell_angle_gamma   89.90689393
_symmetry_Int_Tables_number   1
_chemical_formula_structural   HfTaTiCoWC5
_chemical_formula_sum   'Hf4 Ta4 Ti4 Co4 W4 C20'
_cell_volume   427.86872741
_cell_formula_units_Z   4
loop_
 _symmetry_equiv_pos_site_id
 _symmetry_equiv_pos_as_xyz
  1  'x, y, z'
loop_
 _atom_site_type_symbol
 _atom_site_label
 _atom_site_symmetry_multiplicity
 _atom_site_fract_x
 _atom_site_fract_y
 _atom_site_fract_z
 _atom_site_occupancy
  Hf  Hf0  1  0.50053919  0.50136118  0.00964574  1
  Hf  Hf1  1  1.00212439  0.99704493  0.58740581  1
  Hf  Hf2  1  0.00235047  0.50159977  0.69281417  1
  Hf  Hf3  1  0.50180884  0.50200231  0.79695417  1
  Ta  Ta4  1  -0.00062610  0.50221552  0.11315625  1
  Ta  Ta5  1  -0.01416648  -0.01095529  0.39272561  1
  Ta  Ta6  1  1.00136459  0.50108352  0.90341914  1
  Ta  Ta7  1  0.50169824  1.00120802  0.90311078  1
  Ti  Ti8  1  -0.00091562  1.00185162  1.00741438  1
  Ti  Ti9  1  0.48751846  0.50729122  0.21798014  1
  Ti  Ti10  1  0.50711658  0.49717783  0.58397285  1
  Ti  Ti11  1  1.00050188  1.00170259  0.79870280  1
  Co  Co12  1  0.96735067  0.46162490  0.30161855  1
  Co  Co13  1  0.46855014  1.06236029  0.30561021  1
  Co  Co14  1  0.46736190  0.93800314  0.48301792  1
  Co  Co15  1  0.53417150  0.53328743  0.39560679  1
  W  W16  1  0.48576733  -0.00259201  0.11660276  1
  W  W17  1  -0.02234923  -0.01343638  0.20857818  1
  W  W18  1  0.03990708  0.48541566  0.48458236  1
  W  W19  1  0.49736526  0.00701143  0.68944232  1
  C  C20  1  0.00326657  1.00508163  0.10796731  1
  C  C21  1  1.00072289  0.50348319  1.00797089  1
  C  C22  1  0.50195589  1.00187516  0.00888975  1
  C  C23  1  0.49895222  0.50013940  0.11473495  1
  C  C24  1  0.03965357  0.04337166  0.29832109  1
  C  C25  1  0.99033998  0.50750960  0.21288029  1
  C  C26  1  0.49534806  1.00249084  0.21375592  1
  C  C27  1  0.51505940  0.48296040  0.31114120  1
  C  C28  1  1.03285277  1.00056767  0.48915683  1
  C  C29  1  0.96729901  0.49507355  0.38950852  1
  C  C30  1  0.49316382  0.97328722  0.39616646  1
  C  C31  1  0.51079322  0.51525103  0.48555779  1
  C  C32  1  0.00941922  0.00060860  0.69869211  1
  C  C33  1  0.00018009  0.49718664  0.58547717  1
  C  C34  1  0.50282712  0.99374015  0.59176283  1
  C  C35  1  0.50403543  0.49436006  0.68940005  1
  C  C36  1  1.00227238  1.00142588  0.90384066  1
  C  C37  1  0.00193877  0.50188304  0.80106351  1
  C  C38  1  0.50397923  0.00103816  0.79820000  1
  C  C39  1  0.50118552  0.50109606  0.90359854  1
