# generated using pymatgen
data_HfTaTiCrWC5
_symmetry_space_group_name_H-M   'P 1'
_cell_length_a   4.41060098
_cell_length_b   4.40890608
_cell_length_c   22.00808984
_cell_angle_alpha   90.01027913
_cell_angle_beta   89.97358112
_cell_angle_gamma   89.99169970
_symmetry_Int_Tables_number   1
_chemical_formula_structural   HfTaTiCrWC5
_chemical_formula_sum   'Hf4 Ta4 Ti4 Cr4 W4 C20'
_cell_volume   427.96761851
_cell_formula_units_Z   4
loop_
 _symmetry_equiv_pos_site_id
 _symmetry_equiv_pos_as_xyz
  1  'x, y, z'
loop_
 _atom_site_type_symbol
 _atom_site_label
 _atom_site_symmetry_multiplicity
 _atom_site_fract_x
 _atom_site_fract_y
 _atom_site_fract_z
 _atom_site_occupancy
  Hf  Hf0  1  0.50143062  0.00212560  0.30101319  1
  Hf  Hf1  1  1.00308208  0.00248361  0.40387827  1
  Hf  Hf2  1  0.49744707  1.00288572  0.90458498  1
  Hf  Hf3  1  0.50013463  0.50083576  0.79867753  1
  Ta  Ta4  1  -0.00012831  0.50191179  0.30181712  1
  Ta  Ta5  1  0.50182972  0.49992922  0.19347273  1
  Ta  Ta6  1  0.50160635  1.00146227  0.50125224  1
  Ta  Ta7  1  -0.00002242  0.00112338  0.79691192  1
  Ti  Ti8  1  0.49883775  1.00311481  0.09740161  1
  Ti  Ti9  1  -0.00202569  0.00042157  0.59806360  1
  Ti  Ti10  1  0.99843495  0.49974630  0.69157036  1
  Ti  Ti11  1  0.49735579  0.50034190  0.59590093  1
  Cr  Cr12  1  0.98508056  0.48769774  0.09504770  1
  Cr  Cr13  1  0.48624319  0.52324637  1.00609213  1
  Cr  Cr14  1  -0.01099374  0.49836707  0.50138957  1
  Cr  Cr15  1  0.51239962  0.50721731  0.40699109  1
  W  W16  1  0.99084102  0.97101919  1.00646950  1
  W  W17  1  1.01126837  0.98315647  0.19173159  1
  W  W18  1  0.48771297  0.99174860  0.69322531  1
  W  W19  1  -0.00831330  0.49268841  0.90969793  1
  C  C20  1  0.99906355  0.01297722  0.09872525  1
  C  C21  1  1.02121179  0.49289483  1.00518761  1
  C  C22  1  0.50182166  -0.00767813  1.00408578  1
  C  C23  1  0.51065797  0.50206536  0.09582092  1
  C  C24  1  1.00111169  1.00313374  0.29563622  1
  C  C25  1  1.00047961  0.50077386  0.19626597  1
  C  C26  1  0.49787474  0.00046430  0.19594312  1
  C  C27  1  0.50050083  0.50131638  0.30397023  1
  C  C28  1  1.00112837  0.00526621  0.50400127  1
  C  C29  1  0.99143397  0.50176885  0.40558738  1
  C  C30  1  0.50252606  0.99298736  0.40332814  1
  C  C31  1  0.50684521  0.50106586  0.49752243  1
  C  C32  1  0.00224986  1.00267030  0.69791465  1
  C  C33  1  0.99946255  0.50085454  0.59435307  1
  C  C34  1  0.50063726  0.00106226  0.60015653  1
  C  C35  1  0.50239523  0.50375798  0.69514405  1
  C  C36  1  -0.00078669  0.00727646  0.90228429  1
  C  C37  1  1.00158446  0.50135756  0.80214183  1
  C  C38  1  0.50096654  1.00143284  0.79607362  1
  C  C39  1  0.50575209  0.50372725  0.91017387  1
