# generated using pymatgen
data_HfMgTaTiWC5
_symmetry_space_group_name_H-M   'P 1'
_cell_length_a   4.46300371
_cell_length_b   4.46384744
_cell_length_c   22.45477069
_cell_angle_alpha   90.00085978
_cell_angle_beta   89.97783625
_cell_angle_gamma   89.99724844
_symmetry_Int_Tables_number   1
_chemical_formula_structural   HfMgTaTiWC5
_chemical_formula_sum   'Hf4 Mg4 Ta4 Ti4 W4 C20'
_cell_volume   447.34767307
_cell_formula_units_Z   4
loop_
 _symmetry_equiv_pos_site_id
 _symmetry_equiv_pos_as_xyz
  1  'x, y, z'
loop_
 _atom_site_type_symbol
 _atom_site_label
 _atom_site_symmetry_multiplicity
 _atom_site_fract_x
 _atom_site_fract_y
 _atom_site_fract_z
 _atom_site_occupancy
  Hf  Hf0  1  0.99817003  0.49729678  0.09434960  1
  Hf  Hf1  1  0.00020778  0.49917450  0.30525107  1
  Hf  Hf2  1  0.50019779  0.49968279  0.20124200  1
  Hf  Hf3  1  -0.00061904  0.49720138  0.70148092  1
  Mg  Mg4  1  0.49856547  0.50164105  -0.00223933  1
  Mg  Mg5  1  0.99644321  0.00040704  0.40236249  1
  Mg  Mg6  1  0.99528467  0.50439663  0.49682332  1
  Mg  Mg7  1  0.49925036  0.50071874  0.79677306  1
  Ta  Ta8  1  0.00037643  0.99952986  0.19971456  1
  Ta  Ta9  1  0.50357581  0.49780567  0.59742618  1
  Ta  Ta10  1  1.00013214  -0.00162438  0.80179107  1
  Ta  Ta11  1  0.00065412  0.49969016  0.90051692  1
  Ti  Ti12  1  0.99626478  -0.00002213  0.99697767  1
  Ti  Ti13  1  0.49982082  0.99964370  0.30694563  1
  Ti  Ti14  1  0.49900860  0.50415065  0.40483387  1
  Ti  Ti15  1  0.50218031  -0.00190485  0.70206452  1
  W  W16  1  0.49130809  0.99030815  0.09210788  1
  W  W17  1  0.48498070  0.01447354  0.49636886  1
  W  W18  1  0.02340961  0.98387770  0.59662809  1
  W  W19  1  0.50801567  0.02184951  0.89720187  1
  C  C20  1  0.00634087  0.99933807  0.09772041  1
  C  C21  1  0.99924281  0.49717208  0.99524135  1
  C  C22  1  0.50252429  0.99966857  1.00051363  1
  C  C23  1  0.49973126  0.50653677  0.09935893  1
  C  C24  1  1.00026103  -0.00065487  0.29776009  1
  C  C25  1  0.99995641  0.49963862  0.19878509  1
  C  C26  1  0.50102082  1.00044754  0.19817163  1
  C  C27  1  0.50023658  0.49962136  0.30514572  1
  C  C28  1  0.00375529  0.00341116  0.50713255  1
  C  C29  1  0.99954862  0.50052501  0.40153272  1
  C  C30  1  0.49822196  -0.00043275  0.40584721  1
  C  C31  1  0.49848708  0.49248617  0.50146446  1
  C  C32  1  0.99683401  0.99947122  0.70056029  1
  C  C33  1  0.00022367  0.50462566  0.60011237  1
  C  C34  1  0.50104577  1.00005963  0.60143296  1
  C  C35  1  0.49910205  0.49851233  0.69677273  1
  C  C36  1  0.99622116  0.99596475  0.90047510  1
  C  C37  1  -0.00055065  0.49882187  0.80207721  1
  C  C38  1  0.49966636  0.99889433  0.80261766  1
  C  C39  1  0.49849230  0.49210665  0.89838942  1
