# generated using pymatgen
data_HfTaTiMnWC5
_symmetry_space_group_name_H-M   'P 1'
_cell_length_a   4.45497699
_cell_length_b   4.46989982
_cell_length_c   21.79758378
_cell_angle_alpha   89.87301759
_cell_angle_beta   90.08047125
_cell_angle_gamma   90.00120821
_symmetry_Int_Tables_number   1
_chemical_formula_structural   HfTaTiMnWC5
_chemical_formula_sum   'Hf4 Ta4 Ti4 Mn4 W4 C20'
_cell_volume   434.06034923
_cell_formula_units_Z   4
loop_
 _symmetry_equiv_pos_site_id
 _symmetry_equiv_pos_as_xyz
  1  'x, y, z'
loop_
 _atom_site_type_symbol
 _atom_site_label
 _atom_site_symmetry_multiplicity
 _atom_site_fract_x
 _atom_site_fract_y
 _atom_site_fract_z
 _atom_site_occupancy
  Hf  Hf0  1  0.50453907  0.49951730  1.00448915  1
  Hf  Hf1  1  1.00822959  0.49175975  0.30413523  1
  Hf  Hf2  1  0.50246281  -0.00057121  0.90094145  1
  Hf  Hf3  1  0.50354852  0.50234932  0.79808329  1
  Ta  Ta4  1  0.00330327  0.00007833  0.00505462  1
  Ta  Ta5  1  1.00090918  0.50623306  0.69238209  1
  Ta  Ta6  1  0.50132858  1.00357576  0.69064178  1
  Ta  Ta7  1  1.00277684  1.00455969  0.79723363  1
  Ti  Ti8  1  -0.00022567  0.49928860  0.10558841  1
  Ti  Ti9  1  1.00116718  -0.00224142  0.20411135  1
  Ti  Ti10  1  0.50079170  0.00010507  0.30494125  1
  Ti  Ti11  1  0.49632287  0.50003867  0.59120452  1
  Mn  Mn12  1  0.95383305  0.95804731  0.39984220  1
  Mn  Mn13  1  0.54116291  0.55397197  0.40029485  1
  Mn  Mn14  1  0.95233107  0.95343095  0.58749791  1
  Mn  Mn15  1  0.03792485  0.46076578  0.90178469  1
  W  W16  1  0.48966618  0.00421763  0.11086791  1
  W  W17  1  0.50268831  0.50324910  0.20264532  1
  W  W18  1  0.00455750  0.47830032  0.49755589  1
  W  W19  1  0.48036614  0.01704012  0.49569123  1
  C  C20  1  1.00631129  -0.00110857  0.10539502  1
  C  C21  1  1.00334610  0.49990723  -0.00129675  1
  C  C22  1  0.50689351  -0.00246978  0.00739072  1
  C  C23  1  0.50332118  0.49491674  0.10725554  1
  C  C24  1  1.00217887  0.99557439  0.30704989  1
  C  C25  1  1.00221094  0.49781237  0.20064042  1
  C  C26  1  0.50508511  -0.00548294  0.20624132  1
  C  C27  1  0.50403418  0.49790089  0.30639002  1
  C  C28  1  1.00002358  0.00271303  0.49745689  1
  C  C29  1  -0.02538625  0.53081546  0.40474808  1
  C  C30  1  0.52155576  0.97946516  0.40136865  1
  C  C31  1  0.49010817  0.49754680  0.49304463  1
  C  C32  1  0.00160627  1.00582181  0.69288719  1
  C  C33  1  -0.00207510  0.52582892  0.59407224  1
  C  C34  1  0.52162434  0.00152456  0.59237473  1
  C  C35  1  0.49890721  0.50123246  0.69200098  1
  C  C36  1  0.99920389  1.03553893  0.90057589  1
  C  C37  1  1.00147454  0.50531603  0.80162533  1
  C  C38  1  0.50543532  0.00053563  0.79529700  1
  C  C39  1  0.46664807  0.50267722  0.90091567  1
