# generated using pymatgen
data_HfTaTiMoWC5
_symmetry_space_group_name_H-M   'P 1'
_cell_length_a   4.44304852
_cell_length_b   4.44402377
_cell_length_c   22.27271512
_cell_angle_alpha   90.01062614
_cell_angle_beta   89.99469471
_cell_angle_gamma   90.00669904
_symmetry_Int_Tables_number   1
_chemical_formula_structural   HfTaTiMoWC5
_chemical_formula_sum   'Hf4 Ta4 Ti4 Mo4 W4 C20'
_cell_volume   439.77504229
_cell_formula_units_Z   4
loop_
 _symmetry_equiv_pos_site_id
 _symmetry_equiv_pos_as_xyz
  1  'x, y, z'
loop_
 _atom_site_type_symbol
 _atom_site_label
 _atom_site_symmetry_multiplicity
 _atom_site_fract_x
 _atom_site_fract_y
 _atom_site_fract_z
 _atom_site_occupancy
  Hf  Hf0  1  0.50063895  0.99996467  0.10257981  1
  Hf  Hf1  1  0.99734968  1.00119786  0.39451795  1
  Hf  Hf2  1  0.50450255  0.00131669  0.49753207  1
  Hf  Hf3  1  0.00066707  0.49720670  0.70233739  1
  Ta  Ta4  1  0.49728343  0.50294945  0.60038405  1
  Ta  Ta5  1  -0.00018161  1.00159877  0.80130191  1
  Ta  Ta6  1  0.00079191  0.50195089  0.90373247  1
  Ta  Ta7  1  0.50087084  0.00186031  0.90233401  1
  Ti  Ti8  1  -0.00018805  0.50098862  0.10156462  1
  Ti  Ti9  1  1.00094801  0.00087580  0.19998837  1
  Ti  Ti10  1  0.49966370  -0.00038080  0.29663827  1
  Ti  Ti11  1  0.49995367  0.50029353  0.80051188  1
  Mo  Mo12  1  0.98929270  0.98288255  0.00405869  1
  Mo  Mo13  1  0.99597838  0.49323623  0.29018739  1
  Mo  Mo14  1  0.50936760  0.49159349  0.20665928  1
  Mo  Mo15  1  0.48200631  0.50603965  0.39179115  1
  W  W16  1  0.48053219  0.48558136  0.00236476  1
  W  W17  1  0.01930925  0.49149576  0.49705866  1
  W  W18  1  0.01365438  0.98352579  0.60138596  1
  W  W19  1  0.51177138  0.98752947  0.69914871  1
  C  C20  1  1.00098042  0.00276295  0.09984248  1
  C  C21  1  0.00445725  0.51103012  1.00115465  1
  C  C22  1  0.51001113  0.00697840  0.99804686  1
  C  C23  1  0.50183908  0.50092967  0.09874957  1
  C  C24  1  1.00043971  1.00420642  0.29484942  1
  C  C25  1  0.99643247  0.50304593  0.19850694  1
  C  C26  1  0.49853666  0.00477605  0.20248283  1
  C  C27  1  0.50138844  0.50011601  0.29959611  1
  C  C28  1  1.00089373  1.00882290  0.50409217  1
  C  C29  1  1.00177760  0.50161808  0.40142676  1
  C  C30  1  0.49848831  0.99581143  0.39543816  1
  C  C31  1  0.49946239  0.50313599  0.50031579  1
  C  C32  1  0.99339968  0.00115270  0.70059974  1
  C  C33  1  0.99352961  0.50601390  0.59768782  1
  C  C34  1  0.49348871  0.00631629  0.60389411  1
  C  C35  1  0.49847805  0.50363812  0.70139630  1
  C  C36  1  0.00091742  0.00225361  0.90129167  1
  C  C37  1  0.00052007  0.50199374  0.80392192  1
  C  C38  1  0.49955069  0.00368107  0.80022514  1
  C  C39  1  0.50169026  0.50282162  0.90077625  1
