# generated using pymatgen
data_HfTaTiNiWC5
_symmetry_space_group_name_H-M   'P 1'
_cell_length_a   4.41290293
_cell_length_b   4.41281374
_cell_length_c   22.17237734
_cell_angle_alpha   89.96550713
_cell_angle_beta   90.00001227
_cell_angle_gamma   90.01147720
_symmetry_Int_Tables_number   1
_chemical_formula_structural   HfTaTiNiWC5
_chemical_formula_sum   'Hf4 Ta4 Ti4 Ni4 W4 C20'
_cell_volume   431.76968340
_cell_formula_units_Z   4
loop_
 _symmetry_equiv_pos_site_id
 _symmetry_equiv_pos_as_xyz
  1  'x, y, z'
loop_
 _atom_site_type_symbol
 _atom_site_label
 _atom_site_symmetry_multiplicity
 _atom_site_fract_x
 _atom_site_fract_y
 _atom_site_fract_z
 _atom_site_occupancy
  Hf  Hf0  1  0.49720410  1.00122950  0.10004064  1
  Hf  Hf1  1  0.49777241  0.50204387  0.20795726  1
  Hf  Hf2  1  -0.00113759  0.49770438  0.89802622  1
  Hf  Hf3  1  0.49858221  0.00269466  0.89674227  1
  Ta  Ta4  1  0.99895113  0.49973946  0.09975384  1
  Ta  Ta5  1  0.99616271  0.49794428  0.49891400  1
  Ta  Ta6  1  0.99873104  -0.00015937  0.59912651  1
  Ta  Ta7  1  0.99756568  0.49954000  0.69820484  1
  Ti  Ti8  1  1.00178773  0.00124812  0.20898478  1
  Ti  Ti9  1  0.00906675  -0.00004858  0.39665513  1
  Ti  Ti10  1  0.50358526  0.50114868  0.39965420  1
  Ti  Ti11  1  0.50043623  0.00411286  0.69787771  1
  Ni  Ni12  1  0.49193843  0.49416458  0.00277476  1
  Ni  Ni13  1  -0.00399711  0.50555384  0.30411918  1
  Ni  Ni14  1  0.50911029  0.49116401  0.59857935  1
  Ni  Ni15  1  1.00426131  -0.00891142  0.79064148  1
  W  W16  1  0.98195244  0.97999295  -0.00014750  1
  W  W17  1  0.52715266  0.01116216  0.30713434  1
  W  W18  1  0.48682739  0.98267105  0.50433804  1
  W  W19  1  0.48309785  0.52767653  0.79297600  1
  C  C20  1  0.99901723  1.00156260  0.10298124  1
  C  C21  1  0.01059277  0.50539308  0.00283430  1
  C  C22  1  0.50766596  0.00971163  0.99976207  1
  C  C23  1  0.49893701  0.50064265  0.09901973  1
  C  C24  1  0.00153541  0.99599638  0.30285018  1
  C  C25  1  -0.00246274  0.50073810  0.20493535  1
  C  C26  1  0.49514868  1.00118059  0.20836240  1
  C  C27  1  0.49730792  0.49704555  0.30736488  1
  C  C28  1  0.00098001  0.99973151  0.49737220  1
  C  C29  1  0.00054721  0.50040312  0.39860566  1
  C  C30  1  0.50107771  0.00052855  0.40205090  1
  C  C31  1  0.49881817  0.50099509  0.50097227  1
  C  C32  1  1.00109776  0.99924280  0.69803005  1
  C  C33  1  -0.00163654  0.50007745  0.59765396  1
  C  C34  1  0.50083704  1.00398472  0.59687882  1
  C  C35  1  0.50134625  0.49899729  0.69491319  1
  C  C36  1  0.00006308  -0.00030124  0.90499807  1
  C  C37  1  1.00643534  0.49701863  0.79494503  1
  C  C38  1  0.50384886  0.99625770  0.79231945  1
  C  C39  1  0.49979352  0.50060721  0.89069357  1
