# generated using pymatgen
data_HfScTaTiWC5
_symmetry_space_group_name_H-M   'P 1'
_cell_length_a   4.49679702
_cell_length_b   4.49895637
_cell_length_c   22.50755772
_cell_angle_alpha   90.01392367
_cell_angle_beta   89.99590407
_cell_angle_gamma   89.99885104
_symmetry_Int_Tables_number   1
_chemical_formula_structural   HfScTaTiWC5
_chemical_formula_sum   'Hf4 Sc4 Ta4 Ti4 W4 C20'
_cell_volume   455.34799066
_cell_formula_units_Z   4
loop_
 _symmetry_equiv_pos_site_id
 _symmetry_equiv_pos_as_xyz
  1  'x, y, z'
loop_
 _atom_site_type_symbol
 _atom_site_label
 _atom_site_symmetry_multiplicity
 _atom_site_fract_x
 _atom_site_fract_y
 _atom_site_fract_z
 _atom_site_occupancy
  Hf  Hf0  1  1.00492810  0.50282587  0.10069501  1
  Hf  Hf1  1  0.99981349  -0.00049654  0.59627156  1
  Hf  Hf2  1  0.49968280  0.99986166  0.70115686  1
  Hf  Hf3  1  0.49947492  0.00014053  0.90218639  1
  Sc  Sc4  1  1.00068988  0.49954412  0.29984341  1
  Sc  Sc5  1  0.49898231  0.00086243  0.29995593  1
  Sc  Sc6  1  1.00131597  0.49968318  0.49685131  1
  Sc  Sc7  1  0.99986703  0.50024009  0.90147040  1
  Ta  Ta8  1  -0.00105026  0.99852302  0.20159991  1
  Ta  Ta9  1  0.99986600  0.49993264  0.70212793  1
  Ta  Ta10  1  0.49980246  0.49944918  0.59721362  1
  Ta  Ta11  1  -0.00066336  -0.00097946  0.80156261  1
  Ti  Ti12  1  0.49969650  0.49917681  0.20137013  1
  Ti  Ti13  1  1.00011096  1.00123740  0.39845065  1
  Ti  Ti14  1  0.50057382  1.00195044  0.49477694  1
  Ti  Ti15  1  0.49947149  0.49913836  0.80353122  1
  W  W16  1  0.00760116  0.01630973  0.99981018  1
  W  W17  1  0.51712966  0.01637177  0.09930167  1
  W  W18  1  0.51096430  0.51250116  -0.00007999  1
  W  W19  1  0.51590409  0.51168353  0.39707184  1
  C  C20  1  0.99399499  0.99763498  0.09780859  1
  C  C21  1  0.99165244  0.49073907  1.00117924  1
  C  C22  1  0.48602921  0.98702585  0.00489021  1
  C  C23  1  0.50133077  0.49084323  0.09990956  1
  C  C24  1  0.99896893  -0.00071352  0.29922401  1
  C  C25  1  -0.00097286  0.49810372  0.19919309  1
  C  C26  1  0.49730105  0.99616775  0.19476091  1
  C  C27  1  0.49846910  0.49982089  0.30281409  1
  C  C28  1  -0.00066316  0.99889752  0.49488288  1
  C  C29  1  -0.01278595  0.49759132  0.39878379  1
  C  C30  1  0.49703200  0.99376045  0.40207525  1
  C  C31  1  0.49888069  0.49607090  0.49870828  1
  C  C32  1  0.99955450  0.99981286  0.70258644  1
  C  C33  1  -0.00020968  0.49947653  0.60295072  1
  C  C34  1  0.49971959  0.99891997  0.59692953  1
  C  C35  1  0.49974567  0.49958416  0.70131252  1
  C  C36  1  0.99859226  0.99901313  0.90328363  1
  C  C37  1  -0.00046294  0.49884427  0.79916518  1
  C  C38  1  0.49932853  0.99934708  0.80158742  1
  C  C39  1  0.49931423  0.49920062  0.90320376  1
