# generated using pymatgen
data_HfTaTiVWC5
_symmetry_space_group_name_H-M   'P 1'
_cell_length_a   4.42095771
_cell_length_b   4.42234360
_cell_length_c   22.11377545
_cell_angle_alpha   90.03250649
_cell_angle_beta   90.01598225
_cell_angle_gamma   89.99706298
_symmetry_Int_Tables_number   1
_chemical_formula_structural   HfTaTiVWC5
_chemical_formula_sum   'Hf4 Ta4 Ti4 V4 W4 C20'
_cell_volume   432.34620553
_cell_formula_units_Z   4
loop_
 _symmetry_equiv_pos_site_id
 _symmetry_equiv_pos_as_xyz
  1  'x, y, z'
loop_
 _atom_site_type_symbol
 _atom_site_label
 _atom_site_symmetry_multiplicity
 _atom_site_fract_x
 _atom_site_fract_y
 _atom_site_fract_z
 _atom_site_occupancy
  Hf  Hf0  1  0.99741662  -0.00127478  0.99772653  1
  Hf  Hf1  1  1.00090965  0.50158633  0.10693982  1
  Hf  Hf2  1  0.49986345  -0.00009578  0.10450990  1
  Hf  Hf3  1  0.49646748  0.99827351  0.30399185  1
  Ta  Ta4  1  0.50017361  0.99942887  0.50129311  1
  Ta  Ta5  1  0.50069364  0.49882892  0.40313673  1
  Ta  Ta6  1  0.50064708  -0.00045011  0.69597251  1
  Ta  Ta7  1  0.50179758  0.50027368  0.79720146  1
  Ti  Ti8  1  1.00056687  -0.00043587  0.59663009  1
  Ti  Ti9  1  1.00079430  0.49951943  0.69283354  1
  Ti  Ti10  1  0.50031703  0.49978938  0.59706224  1
  Ti  Ti11  1  1.00001333  0.99956276  0.79424639  1
  V  V12  1  0.99477522  0.50365905  0.30382304  1
  V  V13  1  0.50007618  0.49312629  0.20789412  1
  V  V14  1  0.99974358  0.00176503  0.40453086  1
  V  V15  1  0.99743792  0.49617665  0.50034013  1
  W  W16  1  0.49007532  0.50523354  -0.00157506  1
  W  W17  1  0.98917462  0.01997935  0.20991814  1
  W  W18  1  -0.00896327  0.48433362  0.89175726  1
  W  W19  1  0.48530040  0.02743893  0.89409308  1
  C  C20  1  0.00017700  0.00038106  0.10768457  1
  C  C21  1  0.00541211  0.49820267  0.99474108  1
  C  C22  1  0.50061241  0.99198497  0.99412559  1
  C  C23  1  0.50131608  0.50001749  0.10057609  1
  C  C24  1  0.99828186  -0.00742332  0.30626599  1
  C  C25  1  1.00872038  0.49759671  0.21022707  1
  C  C26  1  0.50408193  1.00030224  0.20381311  1
  C  C27  1  0.50364553  0.49834033  0.30092399  1
  C  C28  1  0.99983271  1.00051652  0.49836692  1
  C  C29  1  0.00135033  0.49651740  0.40164235  1
  C  C30  1  0.49980820  -0.00108917  0.40430247  1
  C  C31  1  0.50244655  0.49973867  0.50126770  1
  C  C32  1  0.00129007  0.99988621  0.69653097  1
  C  C33  1  1.00167084  0.49942452  0.59554033  1
  C  C34  1  0.50034427  -0.00057145  0.59903426  1
  C  C35  1  0.50186585  0.49975256  0.69669851  1
  C  C36  1  0.00662314  0.99763914  0.89386057  1
  C  C37  1  0.00318712  0.50057046  0.79600835  1
  C  C38  1  0.50303407  0.99877172  0.79758000  1
  C  C39  1  0.51067012  0.50388276  0.89855326  1
