# generated using pymatgen
data_HfTiVCoWC5
_symmetry_space_group_name_H-M   'P 1'
_cell_length_a   4.35561523
_cell_length_b   4.34230737
_cell_length_c   21.57048607
_cell_angle_alpha   89.96229520
_cell_angle_beta   90.03930382
_cell_angle_gamma   89.99096720
_symmetry_Int_Tables_number   1
_chemical_formula_structural   HfTiVCoWC5
_chemical_formula_sum   'Hf4 Ti4 V4 Co4 W4 C20'
_cell_volume   407.97147566
_cell_formula_units_Z   4
loop_
 _symmetry_equiv_pos_site_id
 _symmetry_equiv_pos_as_xyz
  1  'x, y, z'
loop_
 _atom_site_type_symbol
 _atom_site_label
 _atom_site_symmetry_multiplicity
 _atom_site_fract_x
 _atom_site_fract_y
 _atom_site_fract_z
 _atom_site_occupancy
  Hf  Hf0  1  0.00042987  0.50412778  0.29728025  1
  Hf  Hf1  1  1.00891646  0.50108668  0.50766826  1
  Hf  Hf2  1  0.00242104  0.99616868  0.79996343  1
  Hf  Hf3  1  0.49671257  -0.00039632  0.89830152  1
  Ti  Ti4  1  0.99590021  0.49995037  0.09027425  1
  Ti  Ti5  1  0.50108420  0.99630354  0.09507559  1
  Ti  Ti6  1  1.00115310  -0.00498410  0.19359649  1
  Ti  Ti7  1  1.00629712  0.49987999  0.70318495  1
  V  V8  1  0.49379611  1.00597701  0.30196322  1
  V  V9  1  0.50802201  0.51553732  0.40074420  1
  V  V10  1  0.01645168  -0.00152024  0.60823385  1
  V  V11  1  0.50288821  0.00528005  0.70016372  1
  Co  Co12  1  0.01017280  0.02564174  -0.00101088  1
  Co  Co13  1  0.51277934  0.51160648  0.61773161  1
  Co  Co14  1  0.96230170  0.47139237  0.89903319  1
  Co  Co15  1  0.52293228  0.50352289  0.79639607  1
  W  W16  1  0.47687625  0.50750979  0.99451688  1
  W  W17  1  0.49496229  0.47397872  0.19445454  1
  W  W18  1  0.95468591  0.01456457  0.39924483  1
  W  W19  1  0.51083659  -0.00119378  0.51112781  1
  C  C20  1  0.00102050  -0.00025942  0.09190883  1
  C  C21  1  0.00102706  0.47946269  0.99029728  1
  C  C22  1  0.49273621  0.99463226  1.00135614  1
  C  C23  1  0.50145060  0.49948155  0.09597101  1
  C  C24  1  0.00051499  1.00233741  0.29977553  1
  C  C25  1  0.00344865  0.49808654  0.19147609  1
  C  C26  1  0.50133818  -0.00206414  0.20098876  1
  C  C27  1  0.49963434  0.50102145  0.29936664  1
  C  C28  1  1.00190119  0.00151617  0.50404254  1
  C  C29  1  -0.00552278  0.49864395  0.40122881  1
  C  C30  1  0.48651862  0.99153374  0.40006329  1
  C  C31  1  0.50420409  0.49974545  0.49779480  1
  C  C32  1  0.00493706  0.00182927  0.69756138  1
  C  C33  1  0.00011826  0.50089680  0.60877034  1
  C  C34  1  0.49805784  -0.00763806  0.60363212  1
  C  C35  1  0.50531564  0.49830372  0.70462331  1
  C  C36  1  0.00027542  0.03279760  0.90866823  1
  C  C37  1  0.98781098  0.49827627  0.80762904  1
  C  C38  1  0.50161811  -0.01212969  0.79194338  1
  C  C39  1  0.53969622  0.50228767  0.89528587  1
