# generated using pymatgen
data_HfMgTiVWC5
_symmetry_space_group_name_H-M   'P 1'
_cell_length_a   4.40583513
_cell_length_b   4.40838246
_cell_length_c   22.04669813
_cell_angle_alpha   90.02525137
_cell_angle_beta   89.97647248
_cell_angle_gamma   90.00684323
_symmetry_Int_Tables_number   1
_chemical_formula_structural   HfMgTiVWC5
_chemical_formula_sum   'Hf4 Mg4 Ti4 V4 W4 C20'
_cell_volume   428.20425790
_cell_formula_units_Z   4
loop_
 _symmetry_equiv_pos_site_id
 _symmetry_equiv_pos_as_xyz
  1  'x, y, z'
loop_
 _atom_site_type_symbol
 _atom_site_label
 _atom_site_symmetry_multiplicity
 _atom_site_fract_x
 _atom_site_fract_y
 _atom_site_fract_z
 _atom_site_occupancy
  Hf  Hf0  1  -0.00103013  0.00460565  1.00117087  1
  Hf  Hf1  1  0.49988363  0.99911082  0.30170813  1
  Hf  Hf2  1  0.50163480  0.49967065  0.60086260  1
  Hf  Hf3  1  0.99770135  0.49943505  0.90015909  1
  Mg  Mg4  1  0.50523026  0.49775834  0.19741127  1
  Mg  Mg5  1  0.99999506  0.00031652  0.40040971  1
  Mg  Mg6  1  0.49861832  0.50321712  0.39982139  1
  Mg  Mg7  1  0.50343121  0.99403625  0.70212145  1
  Ti  Ti8  1  0.00016843  1.00286543  0.19638814  1
  Ti  Ti9  1  1.00047099  -0.00335115  0.59863937  1
  Ti  Ti10  1  0.99905412  -0.00270872  0.80003217  1
  Ti  Ti11  1  0.49983613  0.49932584  0.80161694  1
  V  V12  1  0.50204001  -0.01519515  0.10222566  1
  V  V13  1  0.50402505  0.51018747  0.00153728  1
  V  V14  1  0.49771292  0.01286528  0.49432136  1
  V  V15  1  0.49601505  0.99487271  0.89896528  1
  W  W16  1  1.02001095  0.50981204  0.10380491  1
  W  W17  1  0.00986207  0.49511546  0.30308342  1
  W  W18  1  0.98957328  0.50164147  0.49254144  1
  W  W19  1  0.01306916  0.47328892  0.70348364  1
  C  C20  1  0.99181095  0.99661980  0.10134128  1
  C  C21  1  -0.01164142  0.50262509  0.00359953  1
  C  C22  1  0.49835803  1.00139908  0.99833622  1
  C  C23  1  0.49677474  0.50389045  0.09249401  1
  C  C24  1  0.99774093  1.00456126  0.29507863  1
  C  C25  1  1.00044730  0.49955238  0.19760392  1
  C  C26  1  0.49745617  -0.00047573  0.19044279  1
  C  C27  1  0.48867301  0.49974933  0.29824834  1
  C  C28  1  0.00526300  0.00317560  0.50325602  1
  C  C29  1  0.99875601  0.50080183  0.39996427  1
  C  C30  1  0.49992053  0.00114439  0.40872994  1
  C  C31  1  0.50639778  0.49292401  0.49975274  1
  C  C32  1  0.00010039  0.00670853  0.70045393  1
  C  C33  1  0.00120309  0.50393837  0.60105161  1
  C  C34  1  0.50373752  0.99897174  0.59452771  1
  C  C35  1  0.49382888  0.49985649  0.70576446  1
  C  C36  1  0.00269618  0.99992698  0.89748687  1
  C  C37  1  0.99561281  0.50209562  0.79811447  1
  C  C38  1  0.49960409  0.00095256  0.80889354  1
  C  C39  1  0.49714127  0.50463301  0.90423982  1
