# generated using pymatgen
data_HfTiMnVWC5
_symmetry_space_group_name_H-M   'P 1'
_cell_length_a   4.39521363
_cell_length_b   4.37639704
_cell_length_c   21.70438678
_cell_angle_alpha   89.93619190
_cell_angle_beta   90.04732890
_cell_angle_gamma   89.93309857
_symmetry_Int_Tables_number   1
_chemical_formula_structural   HfTiMnVWC5
_chemical_formula_sum   'Hf4 Ti4 Mn4 V4 W4 C20'
_cell_volume   417.48753193
_cell_formula_units_Z   4
loop_
 _symmetry_equiv_pos_site_id
 _symmetry_equiv_pos_as_xyz
  1  'x, y, z'
loop_
 _atom_site_type_symbol
 _atom_site_label
 _atom_site_symmetry_multiplicity
 _atom_site_fract_x
 _atom_site_fract_y
 _atom_site_fract_z
 _atom_site_occupancy
  Hf  Hf0  1  -0.00275666  0.48951150  0.10488228  1
  Hf  Hf1  1  -0.00415838  0.51049791  0.49807243  1
  Hf  Hf2  1  1.00080156  0.49632169  0.89714081  1
  Hf  Hf3  1  0.50009051  0.99793197  0.89688009  1
  Ti  Ti4  1  0.50028513  0.49643319  0.00095431  1
  Ti  Ti5  1  0.49930753  0.50199077  0.40082354  1
  Ti  Ti6  1  0.99639732  0.50481640  0.69471416  1
  Ti  Ti7  1  0.50042768  0.49921417  0.79196049  1
  Mn  Mn8  1  0.04641119  -0.03433914  0.39192694  1
  Mn  Mn9  1  0.52889729  1.04248496  0.50606444  1
  Mn  Mn10  1  0.45824616  0.44776830  0.59756215  1
  Mn  Mn11  1  0.03542460  1.03830774  0.78664469  1
  V  V12  1  -0.00286903  -0.00439989  0.00236799  1
  V  V13  1  0.98193041  0.98966707  0.20653990  1
  V  V14  1  -0.00895725  0.49324470  0.30249334  1
  V  V15  1  1.01197708  1.00649122  0.59843803  1
  W  W16  1  0.48795086  0.97964275  0.09859155  1
  W  W17  1  0.53404779  1.00412417  0.30703424  1
  W  W18  1  0.50086355  0.54439863  0.21013675  1
  W  W19  1  0.50993076  0.98554788  0.69415526  1
  C  C20  1  1.00322824  -0.00603664  0.10666475  1
  C  C21  1  1.00083613  0.49520357  0.00215733  1
  C  C22  1  0.50412541  0.99862266  1.00488111  1
  C  C23  1  0.49913929  0.49614732  0.10579769  1
  C  C24  1  0.00855978  0.01086643  0.30396355  1
  C  C25  1  1.00068865  0.50735444  0.20973755  1
  C  C26  1  0.50378854  0.01577706  0.20426982  1
  C  C27  1  0.50514984  0.49729547  0.30383310  1
  C  C28  1  0.95043871  0.00635376  0.50252975  1
  C  C29  1  1.00027616  0.53074465  0.39542669  1
  C  C30  1  0.46464093  1.00233543  0.40381208  1
  C  C31  1  0.49577547  0.47863556  0.50289200  1
  C  C32  1  -0.00681426  0.99807773  0.69682289  1
  C  C33  1  0.03261428  0.50310561  0.60045288  1
  C  C34  1  0.49060961  0.01786309  0.59477296  1
  C  C35  1  0.50187790  0.49719071  0.69040987  1
  C  C36  1  1.00026823  -0.00381604  0.90516927  1
  C  C37  1  -0.00037622  0.46900964  0.79207286  1
  C  C38  1  0.47233529  0.99581178  0.79075496  1
  C  C39  1  0.50088583  0.49822902  0.89559663  1
