# generated using pymatgen
data_HfTiVNiWC5
_symmetry_space_group_name_H-M   'P 1'
_cell_length_a   4.34907591
_cell_length_b   4.36121752
_cell_length_c   21.74894245
_cell_angle_alpha   90.02942512
_cell_angle_beta   90.01524112
_cell_angle_gamma   90.00111868
_symmetry_Int_Tables_number   1
_chemical_formula_structural   HfTiVNiWC5
_chemical_formula_sum   'Hf4 Ti4 V4 Ni4 W4 C20'
_cell_volume   412.51790884
_cell_formula_units_Z   4
loop_
 _symmetry_equiv_pos_site_id
 _symmetry_equiv_pos_as_xyz
  1  'x, y, z'
loop_
 _atom_site_type_symbol
 _atom_site_label
 _atom_site_symmetry_multiplicity
 _atom_site_fract_x
 _atom_site_fract_y
 _atom_site_fract_z
 _atom_site_occupancy
  Hf  Hf0  1  -0.00150243  0.99702100  0.58748950  1
  Hf  Hf1  1  0.00046796  0.50210802  0.69299100  1
  Hf  Hf2  1  0.99841507  0.99980978  0.80447977  1
  Hf  Hf3  1  0.49757702  -0.00115338  0.91220691  1
  Ti  Ti4  1  0.49996982  0.49868627  0.01246747  1
  Ti  Ti5  1  0.00233803  0.50971222  0.29805112  1
  Ti  Ti6  1  0.50180051  0.50394171  0.19950711  1
  Ti  Ti7  1  0.49829196  0.99261072  0.48900153  1
  V  V8  1  -0.00828319  0.49497367  0.10547421  1
  V  V9  1  0.49403606  -0.00055215  0.10370377  1
  V  V10  1  0.01366618  -0.00009781  0.19416734  1
  V  V11  1  0.49494942  0.50134035  0.80333328  1
  Ni  Ni12  1  1.00051474  1.00078479  1.01577105  1
  Ni  Ni13  1  1.00151096  0.49633651  0.49060493  1
  Ni  Ni14  1  0.49589703  0.50251077  0.39982897  1
  Ni  Ni15  1  0.49804309  0.49831273  0.57706497  1
  W  W16  1  0.50637990  1.02467698  0.29665179  1
  W  W17  1  0.99788017  1.02796939  0.39530907  1
  W  W18  1  0.49987071  0.00950067  0.69467091  1
  W  W19  1  0.99459599  0.49834421  0.91664584  1
  C  C20  1  0.00225802  -0.00107118  0.10503390  1
  C  C21  1  0.00106908  0.49915603  1.00914630  1
  C  C22  1  0.49887271  0.99808823  1.01435271  1
  C  C23  1  0.50735297  0.49796904  0.10540785  1
  C  C24  1  0.99699643  0.99664387  0.29263030  1
  C  C25  1  0.00293800  0.49934836  0.19747874  1
  C  C26  1  0.49460262  -0.00267289  0.19892705  1
  C  C27  1  0.50145123  0.49860543  0.30044816  1
  C  C28  1  0.99859107  -0.00703079  0.48742521  1
  C  C29  1  0.00378263  0.49773302  0.39586549  1
  C  C30  1  0.49842879  0.98750214  0.39280295  1
  C  C31  1  0.49924842  0.49334112  0.49194021  1
  C  C32  1  -0.00043035  0.99995336  0.69768047  1
  C  C33  1  0.00037746  0.49680796  0.58606464  1
  C  C34  1  0.49895589  0.99305982  0.59823139  1
  C  C35  1  0.50090708  0.49708242  0.70901269  1
  C  C36  1  -0.00102004  0.00078812  0.91235488  1
  C  C37  1  1.00490140  0.49980579  0.80915536  1
  C  C38  1  0.49896241  -0.00300352  0.80073158  1
  C  C39  1  0.50510938  0.49911924  0.90596536  1
