# generated using pymatgen
data_HfScTiVWC5
_symmetry_space_group_name_H-M   'P 1'
_cell_length_a   4.44789894
_cell_length_b   4.44986634
_cell_length_c   22.19050212
_cell_angle_alpha   90.05246758
_cell_angle_beta   89.97953225
_cell_angle_gamma   90.00429037
_symmetry_Int_Tables_number   1
_chemical_formula_structural   HfScTiVWC5
_chemical_formula_sum   'Hf4 Sc4 Ti4 V4 W4 C20'
_cell_volume   439.20653678
_cell_formula_units_Z   4
loop_
 _symmetry_equiv_pos_site_id
 _symmetry_equiv_pos_as_xyz
  1  'x, y, z'
loop_
 _atom_site_type_symbol
 _atom_site_label
 _atom_site_symmetry_multiplicity
 _atom_site_fract_x
 _atom_site_fract_y
 _atom_site_fract_z
 _atom_site_occupancy
  Hf  Hf0  1  0.49754467  1.00118424  0.49009227  1
  Hf  Hf1  1  0.49941251  0.50181896  0.59356088  1
  Hf  Hf2  1  -0.00044200  1.00030684  0.80677909  1
  Hf  Hf3  1  0.49958662  0.50054386  0.80611190  1
  Sc  Sc4  1  -0.00235677  0.50581658  0.10651848  1
  Sc  Sc5  1  0.99878226  0.00296462  0.59361087  1
  Sc  Sc6  1  0.49826130  0.00310350  0.69974345  1
  Sc  Sc7  1  0.99869979  0.50084587  0.90965823  1
  Ti  Ti8  1  0.50063179  0.00219266  0.10328377  1
  Ti  Ti9  1  0.49809938  0.50082747  0.00867774  1
  Ti  Ti10  1  0.49791339  0.49517976  0.38937986  1
  Ti  Ti11  1  0.49732562  0.00016085  0.91352216  1
  V  V12  1  0.99220067  0.01172398  1.00730160  1
  V  V13  1  -0.00099461  0.51799352  0.29671907  1
  V  V14  1  0.49137380  0.49013017  0.20083178  1
  V  V15  1  -0.00590418  0.49905037  0.48358234  1
  W  W16  1  0.01806068  0.01867381  0.19993632  1
  W  W17  1  0.51010475  0.96470285  0.29162272  1
  W  W18  1  0.98783892  0.97865879  0.39043056  1
  W  W19  1  0.98720936  0.51681017  0.69733662  1
  C  C20  1  1.00150234  0.00318440  0.10550588  1
  C  C21  1  0.99855809  0.48653921  1.00844004  1
  C  C22  1  0.50663064  0.99961065  1.00898600  1
  C  C23  1  0.49863656  0.50431722  0.10920096  1
  C  C24  1  1.00018660  -0.00445767  0.29619866  1
  C  C25  1  0.00561591  0.49847454  0.20800134  1
  C  C26  1  0.50121765  1.01012093  0.20019237  1
  C  C27  1  0.50578550  0.49746852  0.29448934  1
  C  C28  1  -0.00175677  1.00570293  0.48503519  1
  C  C29  1  0.00133119  0.49883677  0.39250790  1
  C  C30  1  0.49855111  0.00202567  0.38675948  1
  C  C31  1  0.50544226  0.50141252  0.48718162  1
  C  C32  1  0.00145726  0.98658057  0.70176704  1
  C  C33  1  0.00105415  0.50187262  0.59778879  1
  C  C34  1  0.49845341  0.00200892  0.59172411  1
  C  C35  1  0.51179739  0.49845383  0.69983888  1
  C  C36  1  0.00209885  1.00004537  0.91494085  1
  C  C37  1  1.00170806  0.49828802  0.79794026  1
  C  C38  1  0.50022386  1.00003040  0.81326965  1
  C  C39  1  0.49915819  0.50087045  0.91135982  1
