# generated using pymatgen
data_HfZrTiCoNiC5
_symmetry_space_group_name_H-M   'P 1'
_cell_length_a   4.46011027
_cell_length_b   4.45453146
_cell_length_c   21.85825790
_cell_angle_alpha   89.97310403
_cell_angle_beta   89.80406504
_cell_angle_gamma   89.95457984
_symmetry_Int_Tables_number   1
_chemical_formula_structural   HfZrTiCoNiC5
_chemical_formula_sum   'Hf4 Zr4 Ti4 Co4 Ni4 C20'
_cell_volume   434.27062062
_cell_formula_units_Z   4
loop_
 _symmetry_equiv_pos_site_id
 _symmetry_equiv_pos_as_xyz
  1  'x, y, z'
loop_
 _atom_site_type_symbol
 _atom_site_label
 _atom_site_symmetry_multiplicity
 _atom_site_fract_x
 _atom_site_fract_y
 _atom_site_fract_z
 _atom_site_occupancy
  Hf  Hf0  1  0.50937931  0.50820460  -0.01410817  1
  Hf  Hf1  1  -0.00078866  0.50616231  0.30141133  1
  Hf  Hf2  1  0.98647570  0.49885318  0.70255958  1
  Hf  Hf3  1  0.98042206  -0.00454571  0.80636348  1
  Zr  Zr4  1  1.00626161  0.50306193  0.09869083  1
  Zr  Zr5  1  0.50486054  0.00490963  0.09930546  1
  Zr  Zr6  1  0.99635431  0.49994967  0.50189141  1
  Zr  Zr7  1  0.50166715  -0.00391319  0.50269998  1
  Ti  Ti8  1  1.00372922  1.00443703  0.99256706  1
  Ti  Ti9  1  0.99321869  0.99833258  0.20304187  1
  Ti  Ti10  1  0.50019405  1.00274987  0.30074173  1
  Ti  Ti11  1  0.48858457  -0.00262914  0.70346383  1
  Co  Co12  1  0.53425466  0.54503329  0.20253590  1
  Co  Co13  1  0.04894839  1.03863966  0.39806931  1
  Co  Co14  1  0.46408217  0.45619820  0.60842657  1
  Co  Co15  1  0.45788017  1.04741184  0.89425706  1
  Ni  Ni16  1  0.48358996  0.46933377  0.38795039  1
  Ni  Ni17  1  0.02694698  0.02122562  0.60777711  1
  Ni  Ni18  1  0.02790354  0.49624656  0.89597457  1
  Ni  Ni19  1  0.48204858  0.49130897  0.79987203  1
  C  C20  1  0.00663505  1.00376797  0.09858105  1
  C  C21  1  1.00791022  0.50360146  0.99036246  1
  C  C22  1  0.50854808  1.00708852  0.98813504  1
  C  C23  1  0.50573425  0.50464047  0.10537152  1
  C  C24  1  -0.00182747  0.00310020  0.30394382  1
  C  C25  1  0.95662770  0.49633886  0.20026787  1
  C  C26  1  0.49189769  -0.04215971  0.20430230  1
  C  C27  1  0.49844777  0.49888710  0.29450459  1
  C  C28  1  0.99973416  0.99670942  0.49013395  1
  C  C29  1  1.00964872  0.44670734  0.39946275  1
  C  C30  1  0.45784529  -0.00181481  0.39555021  1
  C  C31  1  0.50237006  0.50116799  0.52174165  1
  C  C32  1  -0.01078353  0.99801896  0.69980730  1
  C  C33  1  0.05465349  0.49307249  0.60357058  1
  C  C34  1  0.50120856  0.04603281  0.60898714  1
  C  C35  1  0.48987062  0.50325680  0.70109525  1
  C  C36  1  0.04599464  0.99331587  0.90279846  1
  C  C37  1  -0.00456649  0.49795742  0.80684300  1
  C  C38  1  0.48450181  0.00867589  0.80408192  1
  C  C39  1  0.49819195  0.45902312  0.88664972  1
