# generated using pymatgen
data_HfZrScTiCoC5
_symmetry_space_group_name_H-M   'P 1'
_cell_length_a   4.56423130
_cell_length_b   4.57322900
_cell_length_c   22.12068531
_cell_angle_alpha   90.05253131
_cell_angle_beta   90.05720359
_cell_angle_gamma   90.22960712
_symmetry_Int_Tables_number   1
_chemical_formula_structural   HfZrScTiCoC5
_chemical_formula_sum   'Hf4 Zr4 Sc4 Ti4 Co4 C20'
_cell_volume   461.72701252
_cell_formula_units_Z   4
loop_
 _symmetry_equiv_pos_site_id
 _symmetry_equiv_pos_as_xyz
  1  'x, y, z'
loop_
 _atom_site_type_symbol
 _atom_site_label
 _atom_site_symmetry_multiplicity
 _atom_site_fract_x
 _atom_site_fract_y
 _atom_site_fract_z
 _atom_site_occupancy
  Hf  Hf0  1  0.50318482  -0.00306932  0.49667347  1
  Hf  Hf1  1  0.49636265  0.49953757  0.39599610  1
  Hf  Hf2  1  1.00602681  0.49641441  0.90572507  1
  Hf  Hf3  1  0.50499801  -0.00383897  0.90588579  1
  Zr  Zr4  1  0.48819603  0.49277839  0.19374595  1
  Zr  Zr5  1  0.50389013  -0.00429706  0.70216050  1
  Zr  Zr6  1  0.50048616  0.49716863  0.59647355  1
  Zr  Zr7  1  0.50508421  0.49682722  0.80328723  1
  Sc  Sc8  1  1.00742571  0.99277293  1.00781384  1
  Sc  Sc9  1  0.99889914  -0.00778694  0.19617508  1
  Sc  Sc10  1  -0.00217367  1.00141671  0.39711253  1
  Sc  Sc11  1  0.00511835  0.49560544  0.69998735  1
  Ti  Ti12  1  0.49733886  0.48962224  0.00764044  1
  Ti  Ti13  1  -0.00709004  0.49702382  0.29536606  1
  Ti  Ti14  1  0.49272285  -0.00114690  0.29523111  1
  Ti  Ti15  1  0.00178922  0.99901464  0.59674180  1
  Co  Co16  1  0.94375513  0.47534505  0.10035820  1
  Co  Co17  1  0.54431310  -0.02503015  0.10053000  1
  Co  Co18  1  -0.03426994  0.53727409  0.49658625  1
  Co  Co19  1  0.03706323  -0.04103373  0.80219380  1
  C  C20  1  0.92620652  0.07974411  0.10174964  1
  C  C21  1  1.01104798  0.49660790  0.01127648  1
  C  C22  1  0.50005937  0.00066083  1.01139602  1
  C  C23  1  0.55039686  0.56935039  0.09661343  1
  C  C24  1  0.00465729  1.00658198  0.29693968  1
  C  C25  1  0.99148247  0.49671004  0.19500036  1
  C  C26  1  0.49309635  -0.00532662  0.19325120  1
  C  C27  1  0.50413972  0.50464871  0.29586753  1
  C  C28  1  0.00507241  -0.05831668  0.50307300  1
  C  C29  1  0.99870132  0.50210980  0.40181694  1
  C  C30  1  0.49713619  0.00167945  0.39268735  1
  C  C31  1  0.54938960  0.49416680  0.49487599  1
  C  C32  1  0.00372132  -0.00442483  0.70682859  1
  C  C33  1  0.00212177  0.48778500  0.58834807  1
  C  C34  1  0.49649495  0.99818722  0.59870172  1
  C  C35  1  0.50805028  0.49518979  0.70049188  1
  C  C36  1  1.00361523  -0.00121574  0.89634946  1
  C  C37  1  1.00367542  0.55633741  0.80404079  1
  C  C38  1  0.45164221  -0.00035499  0.80504029  1
  C  C39  1  0.50694578  0.49690655  0.90989523  1
