# generated using pymatgen
data_HfZrTiCrNiC5
_symmetry_space_group_name_H-M   'P 1'
_cell_length_a   4.42225573
_cell_length_b   4.43865475
_cell_length_c   21.70962372
_cell_angle_alpha   89.99435916
_cell_angle_beta   90.00557910
_cell_angle_gamma   90.02908520
_symmetry_Int_Tables_number   1
_chemical_formula_structural   HfZrTiCrNiC5
_chemical_formula_sum   'Hf4 Zr4 Ti4 Cr4 Ni4 C20'
_cell_volume   426.13524482
_cell_formula_units_Z   4
loop_
 _symmetry_equiv_pos_site_id
 _symmetry_equiv_pos_as_xyz
  1  'x, y, z'
loop_
 _atom_site_type_symbol
 _atom_site_label
 _atom_site_symmetry_multiplicity
 _atom_site_fract_x
 _atom_site_fract_y
 _atom_site_fract_z
 _atom_site_occupancy
  Hf  Hf0  1  -0.00143234  0.49390004  0.29030362  1
  Hf  Hf1  1  0.49860416  0.00050007  0.49575565  1
  Hf  Hf2  1  0.49975022  0.00046959  0.70316889  1
  Hf  Hf3  1  0.50045773  0.50266694  0.59388981  1
  Zr  Zr4  1  0.99940595  1.00549269  1.00504064  1
  Zr  Zr5  1  -0.00152477  0.99638805  0.39528147  1
  Zr  Zr6  1  0.00025211  0.50216970  0.70223035  1
  Zr  Zr7  1  0.50017973  0.49611477  0.81433122  1
  Ti  Ti8  1  0.50099700  0.00405309  0.10258756  1
  Ti  Ti9  1  0.49837525  0.50172872  0.19203221  1
  Ti  Ti10  1  0.49831291  0.49767918  0.39358350  1
  Ti  Ti11  1  0.49979567  -0.00026887  0.90963500  1
  Cr  Cr12  1  1.02544399  0.97106289  0.19563950  1
  Cr  Cr13  1  0.50902900  0.98159208  0.28946816  1
  Cr  Cr14  1  0.99914600  0.01959695  0.59567162  1
  Cr  Cr15  1  -0.00053942  0.98098101  0.81695145  1
  Ni  Ni16  1  0.99619715  0.50001629  0.09859276  1
  Ni  Ni17  1  0.50024106  0.50395179  0.00779959  1
  Ni  Ni18  1  -0.00034752  0.49487781  0.49678222  1
  Ni  Ni19  1  1.00042390  0.50441255  0.90952754  1
  C  C20  1  0.99911205  0.01285434  0.10904483  1
  C  C21  1  0.99892316  0.50483515  1.00497564  1
  C  C22  1  0.49937426  1.00074357  0.00623559  1
  C  C23  1  0.50371635  0.50345932  0.09612239  1
  C  C24  1  0.98698112  0.99616416  0.28629007  1
  C  C25  1  0.00000700  0.51549016  0.18839005  1
  C  C26  1  0.48780837  0.00168868  0.20058190  1
  C  C27  1  0.49817306  0.51233477  0.29257939  1
  C  C28  1  -0.00091868  1.00010075  0.50492612  1
  C  C29  1  -0.00026813  0.49648689  0.39979099  1
  C  C30  1  0.49775764  1.00069418  0.38477379  1
  C  C31  1  0.50011022  0.50043294  0.49031023  1
  C  C32  1  -0.00016368  1.00124660  0.69146494  1
  C  C33  1  1.00032025  0.48102356  0.59239654  1
  C  C34  1  0.50115088  0.00166626  0.59825244  1
  C  C35  1  0.50021606  0.50012783  0.70438734  1
  C  C36  1  0.00078659  0.00196684  0.89999659  1
  C  C37  1  1.00042495  0.51831547  0.81274415  1
  C  C38  1  0.50128353  -0.00379728  0.80962051  1
  C  C39  1  0.49845299  0.49974233  0.91911009  1
