# generated using pymatgen
data_HfZrScTiCrC5
_symmetry_space_group_name_H-M   'P 1'
_cell_length_a   4.52277074
_cell_length_b   4.55920299
_cell_length_c   22.34905521
_cell_angle_alpha   89.87806266
_cell_angle_beta   89.89638445
_cell_angle_gamma   89.94977240
_symmetry_Int_Tables_number   1
_chemical_formula_structural   HfZrScTiCrC5
_chemical_formula_sum   'Hf4 Zr4 Sc4 Ti4 Cr4 C20'
_cell_volume   460.84068326
_cell_formula_units_Z   4
loop_
 _symmetry_equiv_pos_site_id
 _symmetry_equiv_pos_as_xyz
  1  'x, y, z'
loop_
 _atom_site_type_symbol
 _atom_site_label
 _atom_site_symmetry_multiplicity
 _atom_site_fract_x
 _atom_site_fract_y
 _atom_site_fract_z
 _atom_site_occupancy
  Hf  Hf0  1  1.00343201  0.50017397  0.09380056  1
  Hf  Hf1  1  0.50170527  0.00236937  0.09414290  1
  Hf  Hf2  1  0.50058093  -0.00079894  0.30144433  1
  Hf  Hf3  1  0.49260106  -0.00398897  0.70274365  1
  Zr  Zr4  1  1.00088216  0.49872473  0.30058522  1
  Zr  Zr5  1  0.49958686  0.49753609  0.40625544  1
  Zr  Zr6  1  0.49597949  0.49671612  0.60596672  1
  Zr  Zr7  1  0.49955557  0.98880684  0.89394958  1
  Sc  Sc8  1  0.99932004  0.99703455  0.99206125  1
  Sc  Sc9  1  1.00092479  0.00006543  0.19808027  1
  Sc  Sc10  1  0.99787784  0.49555548  0.50754226  1
  Sc  Sc11  1  0.00422566  0.49794575  0.89284513  1
  Ti  Ti12  1  0.50193420  0.49995200  0.19704893  1
  Ti  Ti13  1  0.99727337  -0.00341275  0.40884196  1
  Ti  Ti14  1  0.49835878  -0.00157467  0.50776388  1
  Ti  Ti15  1  -0.00185590  0.50313453  0.70542204  1
  Cr  Cr16  1  0.46449086  0.46368667  0.99235479  1
  Cr  Cr17  1  -0.02199062  0.96234769  0.60371157  1
  Cr  Cr18  1  0.97819820  1.05309626  0.79566426  1
  Cr  Cr19  1  0.53330883  0.45336218  0.79954851  1
  C  C20  1  1.00097316  0.99935091  0.09542376  1
  C  C21  1  1.05851220  0.50068553  -0.00607506  1
  C  C22  1  0.50217580  0.04984839  0.99523368  1
  C  C23  1  0.50517249  0.50337253  0.08870423  1
  C  C24  1  0.00108684  0.99928123  0.30965874  1
  C  C25  1  0.00182212  0.50024676  0.19619190  1
  C  C26  1  0.50062702  0.00189040  0.19862616  1
  C  C27  1  0.50099558  0.49956661  0.29484908  1
  C  C28  1  1.00013745  -0.00385781  0.51222982  1
  C  C29  1  0.00011796  0.49908908  0.40404209  1
  C  C30  1  0.50379289  -0.00279349  0.40859816  1
  C  C31  1  0.49701626  0.49118653  0.50570490  1
  C  C32  1  0.99447020  0.00747265  0.69984505  1
  C  C33  1  -0.00340443  0.54747999  0.61021672  1
  C  C34  1  0.51955893  0.99747576  0.60166600  1
  C  C35  1  0.49248725  0.50049526  0.71084195  1
  C  C36  1  1.00005430  -0.00516597  0.88324745  1
  C  C37  1  0.96464290  0.48251371  0.79562883  1
  C  C38  1  0.50462462  0.04097429  0.79755833  1
  C  C39  1  0.50598022  0.49243082  0.89808828  1
