# generated using pymatgen
data_HfMgZrTiCrC5
_symmetry_space_group_name_H-M   'P 1'
_cell_length_a   4.51544983
_cell_length_b   4.47406894
_cell_length_c   22.39007060
_cell_angle_alpha   89.95529730
_cell_angle_beta   90.10888370
_cell_angle_gamma   89.99887720
_symmetry_Int_Tables_number   1
_chemical_formula_structural   HfMgZrTiCrC5
_chemical_formula_sum   'Hf4 Mg4 Zr4 Ti4 Cr4 C20'
_cell_volume   452.33296602
_cell_formula_units_Z   4
loop_
 _symmetry_equiv_pos_site_id
 _symmetry_equiv_pos_as_xyz
  1  'x, y, z'
loop_
 _atom_site_type_symbol
 _atom_site_label
 _atom_site_symmetry_multiplicity
 _atom_site_fract_x
 _atom_site_fract_y
 _atom_site_fract_z
 _atom_site_occupancy
  Hf  Hf0  1  0.49940316  0.00068851  0.10485056  1
  Hf  Hf1  1  0.49812599  0.50025116  0.99694838  1
  Hf  Hf2  1  1.00063973  0.50025640  0.30467700  1
  Hf  Hf3  1  0.50480926  0.49917146  0.40618777  1
  Mg  Mg4  1  0.51190364  -0.00157891  0.50484467  1
  Mg  Mg5  1  0.98336813  1.00519569  0.79071003  1
  Mg  Mg6  1  -0.00419509  0.50062980  0.88804232  1
  Mg  Mg7  1  0.50098251  0.50481452  0.79415043  1
  Zr  Zr8  1  0.99735599  1.00013453  -0.00419383  1
  Zr  Zr9  1  0.50054350  0.50031416  0.20411873  1
  Zr  Zr10  1  0.51567182  0.50114080  0.60185006  1
  Zr  Zr11  1  0.49367116  0.00112517  0.88661843  1
  Ti  Ti12  1  0.99853575  0.50251145  0.10481298  1
  Ti  Ti13  1  0.49682856  0.99965166  0.30386110  1
  Ti  Ti14  1  0.00824009  0.49746176  0.50244050  1
  Ti  Ti15  1  0.00761185  -0.00063976  0.60134295  1
  Cr  Cr16  1  0.01337781  0.01302606  0.20478091  1
  Cr  Cr17  1  0.03683597  0.99846579  0.41334113  1
  Cr  Cr18  1  0.05912069  0.51994553  0.69717809  1
  Cr  Cr19  1  0.43527565  0.01895088  0.70053462  1
  C  C20  1  0.99869108  0.99786614  0.11199671  1
  C  C21  1  0.00001300  0.49913776  1.00784666  1
  C  C22  1  0.49746111  0.00027022  -0.00055468  1
  C  C23  1  0.50194229  0.50034256  0.10157591  1
  C  C24  1  0.99286697  0.99989341  0.29635014  1
  C  C25  1  0.99962525  0.48179500  0.20165116  1
  C  C26  1  0.47652364  0.00019996  0.20683622  1
  C  C27  1  0.50103873  0.50144277  0.30528091  1
  C  C28  1  0.00825609  -0.00292742  0.49859092  1
  C  C29  1  1.00316610  0.49848476  0.40747325  1
  C  C30  1  0.46429148  0.99914117  0.39930288  1
  C  C31  1  0.50788214  0.49825863  0.50280029  1
  C  C32  1  0.02661757  0.97885954  0.69236876  1
  C  C33  1  1.01056464  0.49829232  0.60294054  1
  C  C34  1  0.51392331  0.00053759  0.61022143  1
  C  C35  1  0.46606463  0.47802377  0.69919099  1
  C  C36  1  -0.00548786  1.00035594  0.89444014  1
  C  C37  1  -0.00676184  0.50306317  0.77686299  1
  C  C38  1  0.48857740  0.00260926  0.78236071  1
  C  C39  1  0.49611094  0.50077290  0.89634429  1
