# generated using pymatgen
data_HfZrTiMnCrC5
_symmetry_space_group_name_H-M   'P 1'
_cell_length_a   4.45326450
_cell_length_b   4.44729238
_cell_length_c   21.91307872
_cell_angle_alpha   90.10363851
_cell_angle_beta   90.00318812
_cell_angle_gamma   90.16406186
_symmetry_Int_Tables_number   1
_chemical_formula_structural   HfZrTiMnCrC5
_chemical_formula_sum   'Hf4 Zr4 Ti4 Mn4 Cr4 C20'
_cell_volume   433.98536113
_cell_formula_units_Z   4
loop_
 _symmetry_equiv_pos_site_id
 _symmetry_equiv_pos_as_xyz
  1  'x, y, z'
loop_
 _atom_site_type_symbol
 _atom_site_label
 _atom_site_symmetry_multiplicity
 _atom_site_fract_x
 _atom_site_fract_y
 _atom_site_fract_z
 _atom_site_occupancy
  Hf  Hf0  1  1.00419096  -0.01929143  -0.00796772  1
  Hf  Hf1  1  0.50355929  0.98749495  0.09026514  1
  Hf  Hf2  1  0.50258501  -0.00596158  0.29794275  1
  Hf  Hf3  1  0.50188117  0.49074836  0.40176405  1
  Zr  Zr4  1  0.50546109  0.49192521  0.19229542  1
  Zr  Zr5  1  0.50290894  0.00468890  0.50287519  1
  Zr  Zr6  1  0.00277313  0.00711353  0.60672670  1
  Zr  Zr7  1  0.49927947  0.01683306  0.71172610  1
  Ti  Ti8  1  0.00313031  -0.00690739  0.19402745  1
  Ti  Ti9  1  0.00163983  0.49634419  0.29940177  1
  Ti  Ti10  1  0.50958872  0.50776316  0.60322936  1
  Ti  Ti11  1  0.48806878  0.51684611  0.81141648  1
  Mn  Mn12  1  0.03434172  0.45770634  0.09553893  1
  Mn  Mn13  1  0.54278239  0.45152658  0.98932289  1
  Mn  Mn14  1  1.03409423  0.94604382  0.40367370  1
  Mn  Mn15  1  0.96579770  0.54127500  0.72251236  1
  Cr  Cr16  1  0.99004007  0.52576368  0.50098632  1
  Cr  Cr17  1  1.01398734  -0.00903415  0.80805488  1
  Cr  Cr18  1  1.01259252  0.46930339  0.89994035  1
  Cr  Cr19  1  0.45998291  1.05404750  0.89822178  1
  C  C20  1  1.00066762  0.03057974  0.09649201  1
  C  C21  1  0.95699374  0.48847088  -0.00676418  1
  C  C22  1  0.50245575  1.01603817  0.98747986  1
  C  C23  1  0.44971700  0.49348925  0.08091701  1
  C  C24  1  0.99972688  -0.00125758  0.30144297  1
  C  C25  1  0.00382889  0.50203368  0.18590680  1
  C  C26  1  0.50413781  -0.00828186  0.19422121  1
  C  C27  1  0.50386639  0.49380007  0.29747117  1
  C  C28  1  1.00031579  0.99357162  0.49113166  1
  C  C29  1  -0.00113039  0.53029996  0.40319817  1
  C  C30  1  0.46201773  0.99367616  0.39947014  1
  C  C31  1  0.52232897  0.50402797  0.50492756  1
  C  C32  1  0.00166993  -0.02760181  0.71478670  1
  C  C33  1  1.01082851  0.50734614  0.59266988  1
  C  C34  1  0.50206934  0.00907544  0.60703593  1
  C  C35  1  0.54282098  0.51208364  0.70930974  1
  C  C36  1  1.00419416  0.01055000  0.89386315  1
  C  C37  1  0.99055858  0.51558514  0.80685365  1
  C  C38  1  0.48879254  1.01126682  0.81275662  1
  C  C39  1  0.47314083  0.50413278  0.90555607  1
