# generated using pymatgen
data_HfZrTiVCrC5
_symmetry_space_group_name_H-M   'P 1'
_cell_length_a   4.45363809
_cell_length_b   4.45191475
_cell_length_c   21.75685202
_cell_angle_alpha   89.98731129
_cell_angle_beta   89.88765838
_cell_angle_gamma   89.98647690
_symmetry_Int_Tables_number   1
_chemical_formula_structural   HfZrTiVCrC5
_chemical_formula_sum   'Hf4 Zr4 Ti4 V4 Cr4 C20'
_cell_volume   431.37697741
_cell_formula_units_Z   4
loop_
 _symmetry_equiv_pos_site_id
 _symmetry_equiv_pos_as_xyz
  1  'x, y, z'
loop_
 _atom_site_type_symbol
 _atom_site_label
 _atom_site_symmetry_multiplicity
 _atom_site_fract_x
 _atom_site_fract_y
 _atom_site_fract_z
 _atom_site_occupancy
  Hf  Hf0  1  0.99614110  0.49905804  0.10636492  1
  Hf  Hf1  1  -0.00443231  -0.00272792  0.20993676  1
  Hf  Hf2  1  0.50012524  0.49791830  0.40745542  1
  Hf  Hf3  1  0.99812792  0.49956281  0.69280532  1
  Zr  Zr4  1  0.99848565  -0.00084654  -0.00815013  1
  Zr  Zr5  1  0.49635923  -0.00076292  0.10403732  1
  Zr  Zr6  1  0.49873982  0.49938829  0.99179655  1
  Zr  Zr7  1  0.00117087  -0.00741065  0.40990783  1
  Ti  Ti8  1  0.49815623  1.00244042  0.30590358  1
  Ti  Ti9  1  -0.00095616  -0.00108236  0.78968122  1
  Ti  Ti10  1  0.99837433  0.49860723  0.88628717  1
  Ti  Ti11  1  0.49845882  0.99752642  0.88323717  1
  V  V12  1  0.51875015  1.02104591  0.51222206  1
  V  V13  1  0.50176260  0.00039732  0.69230942  1
  V  V14  1  0.49005105  0.52102579  0.59734308  1
  V  V15  1  0.49402523  0.48853419  0.79053719  1
  Cr  Cr16  1  0.01895411  0.48236473  0.30498848  1
  Cr  Cr17  1  0.48576853  0.49754397  0.21231895  1
  Cr  Cr18  1  0.97331509  0.47206104  0.50806348  1
  Cr  Cr19  1  0.04111142  -0.02092543  0.59918839  1
  C  C20  1  0.99615349  -0.00085546  0.10173652  1
  C  C21  1  0.99883127  0.49921014  -0.00505602  1
  C  C22  1  0.49850110  0.99997562  0.98930641  1
  C  C23  1  0.49644247  0.49927612  0.11249956  1
  C  C24  1  0.99916386  0.01849061  0.30867298  1
  C  C25  1  1.00802519  0.49918105  0.21385825  1
  C  C26  1  0.49754105  1.00097574  0.20997842  1
  C  C27  1  0.48842872  0.50276520  0.30168775  1
  C  C28  1  0.99024908  1.01464963  0.51323911  1
  C  C29  1  0.00068703  0.49450312  0.40676426  1
  C  C30  1  0.50034256  -0.00288551  0.41156341  1
  C  C31  1  0.51305253  0.49835207  0.50879039  1
  C  C32  1  0.99824117  1.00081592  0.69020211  1
  C  C33  1  1.00989438  0.52087799  0.59373348  1
  C  C34  1  0.49510698  0.00630079  0.60189974  1
  C  C35  1  0.50036404  0.50219505  0.69385248  1
  C  C36  1  -0.00074059  -0.00097690  0.88628988  1
  C  C37  1  0.00518145  0.49898864  0.79316943  1
  C  C38  1  0.49934997  0.00674459  0.78680309  1
  C  C39  1  0.50047664  0.50033308  0.88472214  1
