# generated using pymatgen
data_HfZrTiCrCoC5
_symmetry_space_group_name_H-M   'P 1'
_cell_length_a   4.45994757
_cell_length_b   4.41940768
_cell_length_c   21.66431232
_cell_angle_alpha   90.13865427
_cell_angle_beta   89.82283191
_cell_angle_gamma   90.00752411
_symmetry_Int_Tables_number   1
_chemical_formula_structural   HfZrTiCrCoC5
_chemical_formula_sum   'Hf4 Zr4 Ti4 Cr4 Co4 C20'
_cell_volume   427.00737484
_cell_formula_units_Z   4
loop_
 _symmetry_equiv_pos_site_id
 _symmetry_equiv_pos_as_xyz
  1  'x, y, z'
loop_
 _atom_site_type_symbol
 _atom_site_label
 _atom_site_symmetry_multiplicity
 _atom_site_fract_x
 _atom_site_fract_y
 _atom_site_fract_z
 _atom_site_occupancy
  Hf  Hf0  1  0.00287372  0.49888713  0.29793197  1
  Hf  Hf1  1  0.49285209  0.00725829  0.50078355  1
  Hf  Hf2  1  0.49755543  0.50303043  0.40011036  1
  Hf  Hf3  1  0.50746055  0.50059785  0.79790104  1
  Zr  Zr4  1  0.48812975  0.50250648  1.00778529  1
  Zr  Zr5  1  0.01428028  0.49107906  0.68772433  1
  Zr  Zr6  1  1.00733272  0.99768241  0.79938215  1
  Zr  Zr7  1  0.00297914  0.49865194  0.90674516  1
  Ti  Ti8  1  -0.00175982  0.50063892  0.10613024  1
  Ti  Ti9  1  0.49787347  0.50234254  0.20060416  1
  Ti  Ti10  1  0.99810361  0.00178528  0.39730565  1
  Ti  Ti11  1  0.99683841  -0.00612295  0.59254822  1
  Cr  Cr12  1  0.54303867  1.00902390  0.10792568  1
  Cr  Cr13  1  0.96545429  0.98971607  0.19919061  1
  Cr  Cr14  1  0.51775885  0.00168104  0.29362011  1
  Cr  Cr15  1  0.53522230  0.99442789  0.90866834  1
  Co  Co16  1  -0.05892264  0.02052486  0.00887800  1
  Co  Co17  1  0.97139256  0.50834739  0.49706962  1
  Co  Co18  1  0.52385775  0.97195821  0.68288488  1
  Co  Co19  1  0.54506370  0.52289745  0.59405244  1
  C  C20  1  0.97900514  -0.00076810  0.10483863  1
  C  C21  1  0.99234895  0.47820547  1.01042999  1
  C  C22  1  0.53145557  1.00184203  1.00817058  1
  C  C23  1  0.49678576  0.49448781  0.10829129  1
  C  C24  1  0.98385897  1.00006448  0.29295149  1
  C  C25  1  0.99921409  0.50823672  0.19936848  1
  C  C26  1  0.51187533  1.00150398  0.20059503  1
  C  C27  1  0.50179226  0.49795603  0.29704773  1
  C  C28  1  0.99602037  -0.00273158  0.49455372  1
  C  C29  1  0.99924091  0.50205491  0.40669431  1
  C  C30  1  0.49606274  0.00265642  0.38932629  1
  C  C31  1  0.52685221  0.50444328  0.50580412  1
  C  C32  1  -0.01993668  0.99213017  0.69163015  1
  C  C33  1  0.96794797  0.49221090  0.58246727  1
  C  C34  1  0.49471345  -0.01410757  0.60157402  1
  C  C35  1  0.51178686  0.51800351  0.68631664  1
  C  C36  1  0.96771439  -0.00121522  0.91705322  1
  C  C37  1  0.00806525  0.49616743  0.79590303  1
  C  C38  1  0.50536820  1.00150938  0.81677514  1
  C  C39  1  0.50283495  0.51203227  0.90288915  1
