# generated using pymatgen
data_HfZrTiCrMoC5
_symmetry_space_group_name_H-M   'P 1'
_cell_length_a   4.48051328
_cell_length_b   4.47476750
_cell_length_c   22.00891601
_cell_angle_alpha   90.01384547
_cell_angle_beta   89.84155893
_cell_angle_gamma   89.99992552
_symmetry_Int_Tables_number   1
_chemical_formula_structural   HfZrTiCrMoC5
_chemical_formula_sum   'Hf4 Zr4 Ti4 Cr4 Mo4 C20'
_cell_volume   441.26067377
_cell_formula_units_Z   4
loop_
 _symmetry_equiv_pos_site_id
 _symmetry_equiv_pos_as_xyz
  1  'x, y, z'
loop_
 _atom_site_type_symbol
 _atom_site_label
 _atom_site_symmetry_multiplicity
 _atom_site_fract_x
 _atom_site_fract_y
 _atom_site_fract_z
 _atom_site_occupancy
  Hf  Hf0  1  0.50100757  0.49733387  1.00322504  1
  Hf  Hf1  1  0.50030484  0.49335580  0.39662982  1
  Hf  Hf2  1  0.00296280  0.49875240  0.69968186  1
  Hf  Hf3  1  1.00162616  -0.00054855  0.80035808  1
  Zr  Zr4  1  1.00467179  0.49588064  0.10783599  1
  Zr  Zr5  1  0.01032743  0.99631250  0.58993225  1
  Zr  Zr6  1  0.50400513  0.49761280  0.59491743  1
  Zr  Zr7  1  0.50015116  -0.00129843  0.89988813  1
  Ti  Ti8  1  1.00163710  0.99715846  1.00363051  1
  Ti  Ti9  1  0.98359255  1.00689328  0.20990349  1
  Ti  Ti10  1  0.50322887  -0.00080872  0.70098743  1
  Ti  Ti11  1  1.00100260  0.49886690  0.89959834  1
  Cr  Cr12  1  0.01527221  0.54212618  0.30314546  1
  Cr  Cr13  1  0.01307815  0.97267517  0.39621802  1
  Cr  Cr14  1  -0.02759124  0.47187368  0.48842593  1
  Cr  Cr15  1  0.50813168  0.50082944  0.79932260  1
  Mo  Mo16  1  0.51875708  0.98349132  0.11021678  1
  Mo  Mo17  1  0.44971467  -0.00368264  0.29974486  1
  Mo  Mo18  1  0.51313560  0.52067213  0.20821464  1
  Mo  Mo19  1  0.54233108  0.99469279  0.48904808  1
  C  C20  1  0.98913777  -0.00260597  0.10690211  1
  C  C21  1  0.00016347  0.49795022  -0.00027463  1
  C  C22  1  0.49593431  0.99827058  0.00866728  1
  C  C23  1  0.50071648  0.50607639  0.10740376  1
  C  C24  1  0.98190200  0.99273430  0.30617709  1
  C  C25  1  0.99031902  0.50747989  0.21341011  1
  C  C26  1  0.48947337  0.00739691  0.20441031  1
  C  C27  1  0.48078300  0.49810946  0.29861838  1
  C  C28  1  1.00976444  0.02693693  0.48477263  1
  C  C29  1  0.00024978  0.51504302  0.39744175  1
  C  C30  1  0.48680744  0.99614182  0.39617716  1
  C  C31  1  0.52409828  0.50423924  0.49418428  1
  C  C32  1  0.00361795  0.99893038  0.69662194  1
  C  C33  1  0.00388259  0.49673239  0.58604923  1
  C  C34  1  0.50840954  -0.00255963  0.59446958  1
  C  C35  1  0.50286899  0.49905253  0.70554977  1
  C  C36  1  -0.00048974  -0.00158827  0.90565380  1
  C  C37  1  -0.01208237  0.49919209  0.80276215  1
  C  C38  1  0.50052533  -0.00291176  0.79600405  1
  C  C39  1  0.49849010  0.49885589  0.89338811  1
