# generated using pymatgen
data_HfMgZrTiCoC5
_symmetry_space_group_name_H-M   'P 1'
_cell_length_a   4.49334703
_cell_length_b   4.51495322
_cell_length_c   22.35385284
_cell_angle_alpha   90.13511754
_cell_angle_beta   90.08050908
_cell_angle_gamma   89.86434873
_symmetry_Int_Tables_number   1
_chemical_formula_structural   HfMgZrTiCoC5
_chemical_formula_sum   'Hf4 Mg4 Zr4 Ti4 Co4 C20'
_cell_volume   453.49526225
_cell_formula_units_Z   4
loop_
 _symmetry_equiv_pos_site_id
 _symmetry_equiv_pos_as_xyz
  1  'x, y, z'
loop_
 _atom_site_type_symbol
 _atom_site_label
 _atom_site_symmetry_multiplicity
 _atom_site_fract_x
 _atom_site_fract_y
 _atom_site_fract_z
 _atom_site_occupancy
  Hf  Hf0  1  0.50171948  0.49941733  0.00682817  1
  Hf  Hf1  1  0.51142824  0.49717365  0.20771376  1
  Hf  Hf2  1  0.50983208  0.50581559  0.39499644  1
  Hf  Hf3  1  0.99406396  0.50064684  0.69247343  1
  Mg  Mg4  1  0.50672175  0.99841899  0.11047760  1
  Mg  Mg5  1  0.02031707  0.00762190  0.20595456  1
  Mg  Mg6  1  1.01974838  0.00972451  0.39296905  1
  Mg  Mg7  1  0.51126808  0.48904652  0.59464187  1
  Zr  Zr8  1  1.00185015  0.99976748  1.00723751  1
  Zr  Zr9  1  1.02383320  0.99431043  0.59233997  1
  Zr  Zr10  1  0.00055960  0.00311295  0.79580171  1
  Zr  Zr11  1  1.00004535  0.49952190  0.90029280  1
  Ti  Ti12  1  0.00645869  0.50073872  0.11120349  1
  Ti  Ti13  1  -0.00339260  0.48966877  0.49226502  1
  Ti  Ti14  1  0.50093240  1.00004653  0.89926297  1
  Ti  Ti15  1  0.49899520  0.50584803  0.79619482  1
  Co  Co16  1  0.01197459  0.56058690  0.29986747  1
  Co  Co17  1  0.50930909  0.96885613  0.30345539  1
  Co  Co18  1  0.54705495  1.03158023  0.47834792  1
  Co  Co19  1  0.52464943  1.03854219  0.70154821  1
  C  C20  1  0.00524980  -0.00195957  0.10741950  1
  C  C21  1  0.00161235  0.49970072  1.00887680  1
  C  C22  1  0.50145709  -0.00109456  0.99514872  1
  C  C23  1  0.50161705  0.49870386  0.10637395  1
  C  C24  1  -0.09181656  0.94412737  0.29925214  1
  C  C25  1  1.00804746  0.50432605  0.20912460  1
  C  C26  1  0.51731281  1.00513571  0.22059473  1
  C  C27  1  0.42203792  0.56314608  0.30150774  1
  C  C28  1  -0.04897236  -0.00934152  0.49101497  1
  C  C29  1  1.00803734  0.50660037  0.39059594  1
  C  C30  1  0.51468593  1.00498662  0.39519430  1
  C  C31  1  0.49906583  0.45283435  0.49428897  1
  C  C32  1  0.94519136  -0.00199455  0.69449539  1
  C  C33  1  1.01314243  0.49561685  0.58812570  1
  C  C34  1  0.51367713  -0.01107507  0.62315722  1
  C  C35  1  0.49123530  0.45715223  0.70323471  1
  C  C36  1  -0.00214460  0.99894391  0.89972142  1
  C  C37  1  0.00245425  0.50370617  0.79611457  1
  C  C38  1  0.50022423  0.99434219  0.79490082  1
  C  C39  1  0.49984457  0.49537900  0.89652278  1
