# generated using pymatgen
data_HfMgZrScTiC5
_symmetry_space_group_name_H-M   'P 1'
_cell_length_a   4.57614007
_cell_length_b   4.57653113
_cell_length_c   22.95981966
_cell_angle_alpha   90.00091223
_cell_angle_beta   90.01269307
_cell_angle_gamma   90.00044186
_symmetry_Int_Tables_number   1
_chemical_formula_structural   HfMgZrScTiC5
_chemical_formula_sum   'Hf4 Mg4 Zr4 Sc4 Ti4 C20'
_cell_volume   480.84399006
_cell_formula_units_Z   4
loop_
 _symmetry_equiv_pos_site_id
 _symmetry_equiv_pos_as_xyz
  1  'x, y, z'
loop_
 _atom_site_type_symbol
 _atom_site_label
 _atom_site_symmetry_multiplicity
 _atom_site_fract_x
 _atom_site_fract_y
 _atom_site_fract_z
 _atom_site_occupancy
  Hf  Hf0  1  0.50043045  0.49998136  0.00611037  1
  Hf  Hf1  1  0.49973913  0.50014459  0.59853156  1
  Hf  Hf2  1  0.00015041  0.50013798  0.90003784  1
  Hf  Hf3  1  0.50012469  -0.00010069  0.89953478  1
  Mg  Mg4  1  0.00439206  1.00027621  0.20008162  1
  Mg  Mg5  1  0.99915693  0.00012290  0.39890211  1
  Mg  Mg6  1  0.99984918  1.00010459  0.60071072  1
  Mg  Mg7  1  -0.00003849  0.49968941  0.69621114  1
  Zr  Zr8  1  0.50187079  1.00026975  0.29965629  1
  Zr  Zr9  1  0.99863968  0.49968204  0.49820390  1
  Zr  Zr10  1  0.49913203  0.50006608  0.39881340  1
  Zr  Zr11  1  0.49994833  0.49913104  0.79282662  1
  Sc  Sc12  1  1.00046044  1.00003559  1.00379700  1
  Sc  Sc13  1  0.00098348  0.49994583  0.10638607  1
  Sc  Sc14  1  0.50068476  1.00017667  0.10576941  1
  Sc  Sc15  1  0.50008479  -0.00020847  0.69563858  1
  Ti  Ti16  1  1.00504360  0.49989709  0.29789249  1
  Ti  Ti17  1  0.51093848  0.50264085  0.20124467  1
  Ti  Ti18  1  0.49573897  -0.00016705  0.50020718  1
  Ti  Ti19  1  1.00004208  0.99613364  0.79475878  1
  C  C20  1  0.00125928  1.00015356  0.10207446  1
  C  C21  1  0.00037519  0.50003388  0.00113810  1
  C  C22  1  0.50045788  0.99997659  1.00060920  1
  C  C23  1  0.50088765  0.49992018  0.10815723  1
  C  C24  1  1.00122186  0.99959794  0.30082607  1
  C  C25  1  0.98352037  0.49991852  0.20768777  1
  C  C26  1  0.49903215  0.99634794  0.20303461  1
  C  C27  1  0.49274657  0.49963951  0.29644874  1
  C  C28  1  0.00474443  0.99967035  0.49820404  1
  C  C29  1  -0.00274102  0.50018324  0.39229027  1
  C  C30  1  0.50086857  0.00006253  0.40559981  1
  C  C31  1  0.49952063  0.49978374  0.49824780  1
  C  C32  1  1.00023529  0.00036337  0.70827103  1
  C  C33  1  -0.00020981  0.50028394  0.59655944  1
  C  C34  1  0.50043250  0.99997182  0.59157664  1
  C  C35  1  0.49988820  0.49955396  0.69563502  1
  C  C36  1  0.00017324  0.00067866  0.89598223  1
  C  C37  1  0.00011675  0.50407956  0.80067906  1
  C  C38  1  0.50022028  0.99995124  0.79999906  1
  C  C39  1  0.50009552  0.49970801  0.90216029  1
