# generated using pymatgen
data_HfMgZrTiMnC5
_symmetry_space_group_name_H-M   'P 1'
_cell_length_a   4.50766511
_cell_length_b   4.51216448
_cell_length_c   22.51449734
_cell_angle_alpha   90.21741706
_cell_angle_beta   89.90043662
_cell_angle_gamma   89.78440320
_symmetry_Int_Tables_number   1
_chemical_formula_structural   HfMgZrTiMnC5
_chemical_formula_sum   'Hf4 Mg4 Zr4 Ti4 Mn4 C20'
_cell_volume   457.92246844
_cell_formula_units_Z   4
loop_
 _symmetry_equiv_pos_site_id
 _symmetry_equiv_pos_as_xyz
  1  'x, y, z'
loop_
 _atom_site_type_symbol
 _atom_site_label
 _atom_site_symmetry_multiplicity
 _atom_site_fract_x
 _atom_site_fract_y
 _atom_site_fract_z
 _atom_site_occupancy
  Hf  Hf0  1  0.50278627  1.00314343  0.09913607  1
  Hf  Hf1  1  0.51642745  -0.01340150  0.69956618  1
  Hf  Hf2  1  0.50687347  0.99972640  0.90508560  1
  Hf  Hf3  1  0.50521346  0.49464821  0.80088284  1
  Mg  Mg4  1  -0.00724285  0.49609219  0.29959566  1
  Mg  Mg5  1  -0.02997084  0.50714151  0.49911766  1
  Mg  Mg6  1  0.49310003  1.04189677  0.49415328  1
  Mg  Mg7  1  0.49012002  0.50661248  0.38794653  1
  Zr  Zr8  1  0.99608164  0.49505985  0.09987741  1
  Zr  Zr9  1  0.99294752  0.00210923  0.39762043  1
  Zr  Zr10  1  1.02653427  0.97145845  0.59290629  1
  Zr  Zr11  1  1.00046188  0.49405464  0.90324017  1
  Ti  Ti12  1  0.48663690  1.00395765  0.29512709  1
  Ti  Ti13  1  0.50132578  0.50704467  0.20262732  1
  Ti  Ti14  1  1.01758256  0.48435132  0.69941757  1
  Ti  Ti15  1  1.00807495  -0.00632116  0.79907623  1
  Mn  Mn16  1  0.04964467  -0.05048244  0.00149678  1
  Mn  Mn17  1  0.45093452  0.54599341  1.00208945  1
  Mn  Mn18  1  -0.04261796  0.95919264  0.20524546  1
  Mn  Mn19  1  0.55529776  0.44202344  0.60715251  1
  C  C20  1  0.00154828  -0.00190850  0.09325459  1
  C  C21  1  1.03317853  0.53054986  1.00090986  1
  C  C22  1  0.47080534  0.96619980  0.00157548  1
  C  C23  1  0.49711853  0.49935428  0.09368163  1
  C  C24  1  -0.00053938  1.00271542  0.28592795  1
  C  C25  1  0.00150630  0.54644137  0.19836178  1
  C  C26  1  0.53849000  0.00583602  0.19866910  1
  C  C27  1  0.49204452  0.50156697  0.28982815  1
  C  C28  1  -0.00851740  0.01249007  0.49641891  1
  C  C29  1  0.98864906  0.50211256  0.40022088  1
  C  C30  1  0.49380272  0.00648649  0.38696419  1
  C  C31  1  0.45080438  0.57482512  0.53638877  1
  C  C32  1  1.01524466  0.98310344  0.70475864  1
  C  C33  1  0.96379882  0.47731666  0.60724445  1
  C  C34  1  0.51981191  0.03673774  0.60041865  1
  C  C35  1  0.50293728  0.49084339  0.69540282  1
  C  C36  1  1.00425729  -0.00418946  0.90870307  1
  C  C37  1  0.00438730  0.49345496  0.79772845  1
  C  C38  1  0.50711591  0.99494068  0.80267934  1
  C  C39  1  0.50250149  0.49671632  0.90934317  1
