# generated using pymatgen
data_HfMgZrTiNiC5
_symmetry_space_group_name_H-M   'P 1'
_cell_length_a   4.47586551
_cell_length_b   4.48301102
_cell_length_c   22.42753285
_cell_angle_alpha   89.99954676
_cell_angle_beta   90.00452749
_cell_angle_gamma   89.99496603
_symmetry_Int_Tables_number   1
_chemical_formula_structural   HfMgZrTiNiC5
_chemical_formula_sum   'Hf4 Mg4 Zr4 Ti4 Ni4 C20'
_cell_volume   450.01639208
_cell_formula_units_Z   4
loop_
 _symmetry_equiv_pos_site_id
 _symmetry_equiv_pos_as_xyz
  1  'x, y, z'
loop_
 _atom_site_type_symbol
 _atom_site_label
 _atom_site_symmetry_multiplicity
 _atom_site_fract_x
 _atom_site_fract_y
 _atom_site_fract_z
 _atom_site_occupancy
  Hf  Hf0  1  0.50201634  0.00228677  0.10120168  1
  Hf  Hf1  1  0.50590619  1.00007717  0.29579216  1
  Hf  Hf2  1  0.99722893  0.49894433  0.70298037  1
  Hf  Hf3  1  -0.00297262  0.49857116  0.90180695  1
  Mg  Mg4  1  1.00113416  0.50327465  0.10350893  1
  Mg  Mg5  1  0.00370864  0.00047458  0.19805225  1
  Mg  Mg6  1  -0.00148879  0.49958345  0.49580199  1
  Mg  Mg7  1  0.49858643  0.49896945  0.80228410  1
  Zr  Zr8  1  0.49989538  -0.00060155  0.49740866  1
  Zr  Zr9  1  0.49820160  0.49954422  0.39810434  1
  Zr  Zr10  1  0.49849884  -0.00217434  0.70303366  1
  Zr  Zr11  1  0.49729928  -0.00153254  0.90192620  1
  Ti  Ti12  1  0.50144884  0.49885898  1.00645736  1
  Ti  Ti13  1  0.00500160  0.49913929  0.29603937  1
  Ti  Ti14  1  0.99941511  0.00018349  0.59436642  1
  Ti  Ti15  1  0.49862554  0.50049864  0.59676293  1
  Ni  Ni16  1  -0.00577111  0.01785588  0.00599267  1
  Ni  Ni17  1  0.51906881  0.51114489  0.19769778  1
  Ni  Ni18  1  0.99782842  -0.00906771  0.39825373  1
  Ni  Ni19  1  0.98976119  0.98841837  0.80186770  1
  C  C20  1  1.00251269  1.00299976  0.09047589  1
  C  C21  1  0.00136957  0.47973347  0.00285329  1
  C  C22  1  0.51002147  -0.00194792  0.00260781  1
  C  C23  1  0.50027121  0.50140421  0.10495876  1
  C  C24  1  0.00574818  0.00175693  0.30627047  1
  C  C25  1  -0.04793612  0.50020508  0.20596501  1
  C  C26  1  0.49975302  0.97674203  0.19845742  1
  C  C27  1  0.50011002  0.49880196  0.29055401  1
  C  C28  1  0.00024013  0.00021170  0.49984575  1
  C  C29  1  -0.00316624  0.51989150  0.39216892  1
  C  C30  1  0.50954147  0.99935253  0.39709717  1
  C  C31  1  0.49847703  0.49904336  0.50241016  1
  C  C32  1  0.99889985  1.00038571  0.70431886  1
  C  C33  1  1.00051242  0.49981511  0.59963690  1
  C  C34  1  0.50115171  -0.00193877  0.59953251  1
  C  C35  1  0.49689197  0.49726694  0.69479540  1
  C  C36  1  -0.00237159  -0.00049911  0.89582684  1
  C  C37  1  1.00083200  0.52519249  0.80177561  1
  C  C38  1  0.52873524  1.00056995  0.80161244  1
  C  C39  1  0.49638413  0.49906971  0.90971082  1
