# generated using pymatgen
data_HfZrScTiMnC5
_symmetry_space_group_name_H-M   'P 1'
_cell_length_a   4.54549381
_cell_length_b   4.53246207
_cell_length_c   22.42946970
_cell_angle_alpha   89.93903884
_cell_angle_beta   90.15464985
_cell_angle_gamma   90.06432645
_symmetry_Int_Tables_number   1
_chemical_formula_structural   HfZrScTiMnC5
_chemical_formula_sum   'Hf4 Zr4 Sc4 Ti4 Mn4 C20'
_cell_volume   462.09594212
_cell_formula_units_Z   4
loop_
 _symmetry_equiv_pos_site_id
 _symmetry_equiv_pos_as_xyz
  1  'x, y, z'
loop_
 _atom_site_type_symbol
 _atom_site_label
 _atom_site_symmetry_multiplicity
 _atom_site_fract_x
 _atom_site_fract_y
 _atom_site_fract_z
 _atom_site_occupancy
  Hf  Hf0  1  0.00317361  -0.00291375  0.20120784  1
  Hf  Hf1  1  0.49040150  0.00287005  0.69637969  1
  Hf  Hf2  1  -0.00815259  0.00079517  0.80114149  1
  Hf  Hf3  1  0.49397559  0.50296409  0.80085233  1
  Zr  Zr4  1  0.99637164  0.99795795  0.00012105  1
  Zr  Zr5  1  0.49921533  0.50057720  0.00100853  1
  Zr  Zr6  1  1.00812701  0.00468432  0.39972450  1
  Zr  Zr7  1  0.51337639  1.00538639  0.49989737  1
  Sc  Sc8  1  0.50128266  -0.00482306  0.10299686  1
  Sc  Sc9  1  0.00381337  0.49960854  0.30039908  1
  Sc  Sc10  1  -0.00718300  1.00488192  0.59762203  1
  Sc  Sc11  1  -0.01262085  0.50237152  0.69549774  1
  Ti  Ti12  1  1.00654583  0.49772352  0.10450206  1
  Ti  Ti13  1  0.50415985  -0.00450667  0.29954884  1
  Ti  Ti14  1  0.50654708  0.50329735  0.39986410  1
  Ti  Ti15  1  0.00512332  0.49258793  0.90028899  1
  Mn  Mn16  1  0.53822253  0.46114644  0.19994751  1
  Mn  Mn17  1  0.05938724  0.53624008  0.50015784  1
  Mn  Mn18  1  0.44999015  0.53530508  0.59759089  1
  Mn  Mn19  1  0.45634638  0.04253687  0.89989258  1
  C  C20  1  0.00273976  -0.00478532  0.10157490  1
  C  C21  1  0.99738552  0.49878938  0.00219002  1
  C  C22  1  0.50003885  0.99820468  -0.01002363  1
  C  C23  1  0.48776084  0.49917611  0.11420983  1
  C  C24  1  0.00691903  -0.00196090  0.29916074  1
  C  C25  1  0.95107648  0.50041940  0.19759196  1
  C  C26  1  0.49917134  0.04653270  0.20519123  1
  C  C27  1  0.50271008  0.51311893  0.29691518  1
  C  C28  1  1.00850690  0.95676102  0.49977923  1
  C  C29  1  1.00918967  0.50180071  0.41006170  1
  C  C30  1  0.50877320  0.01118285  0.39573923  1
  C  C31  1  0.46855319  0.50141587  0.50309106  1
  C  C32  1  0.98945083  0.00319513  0.70057885  1
  C  C33  1  0.04086354  0.49598741  0.58812787  1
  C  C34  1  0.49539719  0.95177600  0.59873493  1
  C  C35  1  0.48704060  0.50080969  0.68781099  1
  C  C36  1  1.04614788  -0.00631233  0.89980236  1
  C  C37  1  0.99271649  0.50221731  0.80424259  1
  C  C38  1  0.49438590  0.00097058  0.80606084  1
  C  C39  1  0.50422101  0.45445277  0.90009708  1
