# generated using pymatgen
data_HfZrTiMnCoC5
_symmetry_space_group_name_H-M   'P 1'
_cell_length_a   4.48379420
_cell_length_b   4.47218169
_cell_length_c   21.45182886
_cell_angle_alpha   90.05550361
_cell_angle_beta   89.95714769
_cell_angle_gamma   89.81044832
_symmetry_Int_Tables_number   1
_chemical_formula_structural   HfZrTiMnCoC5
_chemical_formula_sum   'Hf4 Zr4 Ti4 Mn4 Co4 C20'
_cell_volume   430.15673801
_cell_formula_units_Z   4
loop_
 _symmetry_equiv_pos_site_id
 _symmetry_equiv_pos_as_xyz
  1  'x, y, z'
loop_
 _atom_site_type_symbol
 _atom_site_label
 _atom_site_symmetry_multiplicity
 _atom_site_fract_x
 _atom_site_fract_y
 _atom_site_fract_z
 _atom_site_occupancy
  Hf  Hf0  1  -0.01457554  0.97944059  0.19893471  1
  Hf  Hf1  1  1.00118726  0.49183708  0.29744299  1
  Hf  Hf2  1  0.50177514  1.02060217  0.49527435  1
  Hf  Hf3  1  -0.00255710  0.48973246  0.70419914  1
  Zr  Zr4  1  0.49819050  -0.02615052  0.09943647  1
  Zr  Zr5  1  0.50850831  0.51660512  0.39375494  1
  Zr  Zr6  1  0.49548233  0.50097636  0.60101764  1
  Zr  Zr7  1  1.00106941  0.99447341  0.80572602  1
  Ti  Ti8  1  0.49881163  0.49646027  -0.00086517  1
  Ti  Ti9  1  0.49710284  -0.00730322  0.70491180  1
  Ti  Ti10  1  -0.00139087  0.50608973  0.90578051  1
  Ti  Ti11  1  0.50390572  0.00218505  0.90201009  1
  Mn  Mn12  1  1.04858420  0.06320007  1.00128715  1
  Mn  Mn13  1  0.45057165  0.43757555  0.19652098  1
  Mn  Mn14  1  1.03112469  0.57585528  0.49718833  1
  Mn  Mn15  1  0.96083877  0.96196997  0.60184726  1
  Co  Co16  1  -0.03514241  0.44730011  0.09796959  1
  Co  Co17  1  0.45868581  0.03411759  0.29776781  1
  Co  Co18  1  1.03549984  -0.02804928  0.39895985  1
  Co  Co19  1  0.50339459  0.49261671  0.80759762  1
  C  C20  1  -0.00480613  0.00390096  0.09128581  1
  C  C21  1  0.99845703  0.47490687  0.00692692  1
  C  C22  1  0.46682649  -0.00231066  0.99747314  1
  C  C23  1  0.55880054  0.48328078  0.10571865  1
  C  C24  1  0.04057328  -0.00611582  0.30677891  1
  C  C25  1  0.03737864  0.48572327  0.18806674  1
  C  C26  1  0.49035440  0.02029442  0.20690151  1
  C  C27  1  0.50913967  0.47833139  0.28441613  1
  C  C28  1  0.99941404  -0.01283728  0.49550441  1
  C  C29  1  0.00073118  0.55302485  0.40537331  1
  C  C30  1  0.46661139  0.01724989  0.38714391  1
  C  C31  1  0.46107444  0.51639424  0.49765725  1
  C  C32  1  1.00675431  -0.00792919  0.69221300  1
  C  C33  1  -0.00211497  0.54562829  0.59194627  1
  C  C34  1  0.54378145  1.00420011  0.60218883  1
  C  C35  1  0.49732228  0.49321176  0.71113515  1
  C  C36  1  0.99248898  1.00031118  0.91174960  1
  C  C37  1  0.99261372  0.49457569  0.80846119  1
  C  C38  1  0.50038269  0.00872603  0.80268985  1
  C  C39  1  0.50106183  0.50516891  0.90024108  1
