# generated using pymatgen
data_HfZrTiMnNiC5
_symmetry_space_group_name_H-M   'P 1'
_cell_length_a   4.48533130
_cell_length_b   4.49545355
_cell_length_c   21.61812528
_cell_angle_alpha   89.92554594
_cell_angle_beta   90.15719880
_cell_angle_gamma   89.76405625
_symmetry_Int_Tables_number   1
_chemical_formula_structural   HfZrTiMnNiC5
_chemical_formula_sum   'Hf4 Zr4 Ti4 Mn4 Ni4 C20'
_cell_volume   435.89348856
_cell_formula_units_Z   4
loop_
 _symmetry_equiv_pos_site_id
 _symmetry_equiv_pos_as_xyz
  1  'x, y, z'
loop_
 _atom_site_type_symbol
 _atom_site_label
 _atom_site_symmetry_multiplicity
 _atom_site_fract_x
 _atom_site_fract_y
 _atom_site_fract_z
 _atom_site_occupancy
  Hf  Hf0  1  0.49447692  0.99397572  0.50669908  1
  Hf  Hf1  1  0.48992325  0.49504828  0.39711877  1
  Hf  Hf2  1  0.51534537  1.02825377  0.69931786  1
  Hf  Hf3  1  0.50858016  -0.01224666  0.90282054  1
  Zr  Zr4  1  0.01615713  -0.00760631  1.00260820  1
  Zr  Zr5  1  -0.01826627  0.51023856  0.28883737  1
  Zr  Zr6  1  -0.00702521  -0.00160060  0.39697014  1
  Zr  Zr7  1  0.99173961  0.49015756  0.51475246  1
  Ti  Ti8  1  0.99059744  0.49805855  0.09651417  1
  Ti  Ti9  1  0.49007295  0.51334763  0.19013717  1
  Ti  Ti10  1  1.00954335  0.48420262  0.89964610  1
  Ti  Ti11  1  0.51378859  0.50184068  0.80080425  1
  Mn  Mn12  1  0.54479919  0.05288448  0.09859465  1
  Mn  Mn13  1  0.44628549  0.04292099  0.28453039  1
  Mn  Mn14  1  1.06604548  0.57535983  0.70476390  1
  Mn  Mn15  1  -0.03238385  0.94037248  0.80040715  1
  Ni  Ni16  1  0.50308082  0.48313636  -0.00015535  1
  Ni  Ni17  1  0.98543554  0.99645998  0.19502452  1
  Ni  Ni18  1  0.99277099  0.95570783  0.60749621  1
  Ni  Ni19  1  0.51183898  0.52509734  0.60731866  1
  C  C20  1  0.95981567  -0.00106773  0.10543849  1
  C  C21  1  1.00804271  0.49344259  -0.00398977  1
  C  C22  1  0.51101309  0.99180868  0.01150908  1
  C  C23  1  0.49038884  0.46516526  0.09388512  1
  C  C24  1  0.03190006  0.00625753  0.28777917  1
  C  C25  1  -0.00787030  0.52153297  0.18909989  1
  C  C26  1  0.50112213  0.99839260  0.19861903  1
  C  C27  1  0.48571738  0.45986583  0.29052275  1
  C  C28  1  -0.00369252  -0.00962694  0.50897403  1
  C  C29  1  -0.01080410  0.49950970  0.40140067  1
  C  C30  1  0.49543248  0.99360786  0.38953731  1
  C  C31  1  0.49166273  0.49474526  0.50729030  1
  C  C32  1  1.01689743  0.98897237  0.70645260  1
  C  C33  1  0.96016060  0.52231909  0.62234905  1
  C  C34  1  0.51429646  -0.00673366  0.60314821  1
  C  C35  1  0.47809645  0.51762266  0.70175295  1
  C  C36  1  0.01109802  -0.01271638  0.89220588  1
  C  C37  1  0.00368399  0.52623762  0.79595056  1
  C  C38  1  0.54845220  0.00155653  0.80219873  1
  C  C39  1  0.50329647  0.48777840  0.90225173  1
