# generated using pymatgen
data_HfZrTiMnMoC5
_symmetry_space_group_name_H-M   'P 1'
_cell_length_a   4.50347165
_cell_length_b   4.49815531
_cell_length_c   22.03578675
_cell_angle_alpha   90.07719497
_cell_angle_beta   89.77442815
_cell_angle_gamma   90.02210187
_symmetry_Int_Tables_number   1
_chemical_formula_structural   HfZrTiMnMoC5
_chemical_formula_sum   'Hf4 Zr4 Ti4 Mn4 Mo4 C20'
_cell_volume   446.38197494
_cell_formula_units_Z   4
loop_
 _symmetry_equiv_pos_site_id
 _symmetry_equiv_pos_as_xyz
  1  'x, y, z'
loop_
 _atom_site_type_symbol
 _atom_site_label
 _atom_site_symmetry_multiplicity
 _atom_site_fract_x
 _atom_site_fract_y
 _atom_site_fract_z
 _atom_site_occupancy
  Hf  Hf0  1  0.99697027  1.00323896  -0.00071612  1
  Hf  Hf1  1  0.50300959  1.00420713  0.10030253  1
  Hf  Hf2  1  0.52081418  0.99763837  0.70232619  1
  Hf  Hf3  1  0.50938476  0.49759961  0.59947352  1
  Zr  Zr4  1  0.49610110  0.00358859  0.29799220  1
  Zr  Zr5  1  0.98588924  1.00023842  0.39909429  1
  Zr  Zr6  1  -0.00754241  0.49287337  0.49904951  1
  Zr  Zr7  1  1.01498314  0.49622965  0.70480230  1
  Ti  Ti8  1  -0.00086451  0.49940512  0.10163244  1
  Ti  Ti9  1  -0.00584121  0.49751037  0.29397395  1
  Ti  Ti10  1  0.99933625  0.49652659  0.90159398  1
  Ti  Ti11  1  0.50964372  0.50332434  0.80659391  1
  Mn  Mn12  1  0.03821907  0.93584606  0.19842072  1
  Mn  Mn13  1  0.44770685  0.96303115  0.50017164  1
  Mn  Mn14  1  1.05823488  0.96243432  0.60131528  1
  Mn  Mn15  1  0.96480353  0.96056585  0.81163334  1
  Mo  Mo16  1  0.48508699  0.51188207  -0.00494858  1
  Mo  Mo17  1  0.49794481  0.51893183  0.19858751  1
  Mo  Mo18  1  0.48567264  0.49941006  0.39932358  1
  Mo  Mo19  1  0.48187880  0.01098405  0.89763495  1
  C  C20  1  -0.00020647  0.00355675  0.10639534  1
  C  C21  1  0.00504758  0.50226038  0.00076217  1
  C  C22  1  0.50053731  -0.00938796  0.99596040  1
  C  C23  1  0.50397683  0.49917212  0.09903731  1
  C  C24  1  0.99434496  0.00045759  0.28913817  1
  C  C25  1  -0.01034880  0.52890084  0.19757768  1
  C  C26  1  0.45511747  -0.00271380  0.19831370  1
  C  C27  1  0.49716517  0.50078920  0.29674180  1
  C  C28  1  0.03220312  0.99856669  0.50826913  1
  C  C29  1  -0.00736832  0.50111369  0.39212055  1
  C  C30  1  0.48660065  0.01224032  0.40885792  1
  C  C31  1  0.49670084  0.53925104  0.49565442  1
  C  C32  1  0.01913793  -0.00232830  0.69267842  1
  C  C33  1  0.00518396  0.53914884  0.60093867  1
  C  C34  1  0.47319503  0.00302521  0.59377235  1
  C  C35  1  0.51427233  0.49688959  0.70558745  1
  C  C36  1  1.00340791  1.00243593  0.89574296  1
  C  C37  1  1.00836532  0.53956740  0.80741236  1
  C  C38  1  0.54073297  1.00212068  0.80452806  1
  C  C39  1  0.49934036  0.49127672  0.90217362  1
