# generated using pymatgen
data_HfZrScTiMoC5
_symmetry_space_group_name_H-M   'P 1'
_cell_length_a   4.55199368
_cell_length_b   4.55126224
_cell_length_c   22.74331415
_cell_angle_alpha   89.98575798
_cell_angle_beta   89.98986484
_cell_angle_gamma   90.01205216
_symmetry_Int_Tables_number   1
_chemical_formula_structural   HfZrScTiMoC5
_chemical_formula_sum   'Hf4 Zr4 Sc4 Ti4 Mo4 C20'
_cell_volume   471.18041638
_cell_formula_units_Z   4
loop_
 _symmetry_equiv_pos_site_id
 _symmetry_equiv_pos_as_xyz
  1  'x, y, z'
loop_
 _atom_site_type_symbol
 _atom_site_label
 _atom_site_symmetry_multiplicity
 _atom_site_fract_x
 _atom_site_fract_y
 _atom_site_fract_z
 _atom_site_occupancy
  Hf  Hf0  1  0.49848858  1.00310456  0.09273403  1
  Hf  Hf1  1  -0.00033099  0.50012157  0.50481510  1
  Hf  Hf2  1  0.00013023  -0.00033356  0.60843298  1
  Hf  Hf3  1  0.50018868  0.00012292  0.70834810  1
  Zr  Zr4  1  0.50233758  0.50208954  0.99213233  1
  Zr  Zr5  1  -0.00000483  1.00064546  0.19512860  1
  Zr  Zr6  1  0.49986616  0.00029664  0.50442632  1
  Zr  Zr7  1  0.49821433  0.50264849  0.39930845  1
  Sc  Sc8  1  0.99984729  0.50071356  0.29818378  1
  Sc  Sc9  1  0.49914091  1.00006365  0.29849179  1
  Sc  Sc10  1  0.49966919  0.50000675  0.19507174  1
  Sc  Sc11  1  1.00024076  0.49963717  0.70853376  1
  Ti  Ti12  1  -0.00185904  0.00072028  -0.00841635  1
  Ti  Ti13  1  0.49998249  0.50100895  0.60901881  1
  Ti  Ti14  1  0.99669370  0.99801317  0.80544272  1
  Ti  Ti15  1  0.50322230  0.50091991  0.80355492  1
  Mo  Mo16  1  0.98461184  0.51756738  0.09512985  1
  Mo  Mo17  1  0.98768328  1.01539601  0.39653147  1
  Mo  Mo18  1  0.02308078  0.48283722  0.89510314  1
  Mo  Mo19  1  0.47094972  0.01713967  0.89555054  1
  C  C20  1  1.00114322  -0.01223076  0.08898006  1
  C  C21  1  1.00227133  0.49632081  -0.00621212  1
  C  C22  1  0.50543197  1.00047260  0.99040681  1
  C  C23  1  0.51454498  0.50038040  0.09219794  1
  C  C24  1  0.00067832  0.99801945  0.30603152  1
  C  C25  1  1.00216221  0.49876471  0.18587954  1
  C  C26  1  0.50017560  0.99991394  0.19317668  1
  C  C27  1  0.50000310  0.49975077  0.29906780  1
  C  C28  1  1.00068752  0.99799037  0.50077349  1
  C  C29  1  -0.00004509  0.48418409  0.40320548  1
  C  C30  1  0.51300680  1.00014102  0.40268345  1
  C  C31  1  0.49980470  0.50063838  0.51024076  1
  C  C32  1  1.00000539  0.99978481  0.71066203  1
  C  C33  1  0.99982129  0.49915378  0.60545467  1
  C  C34  1  0.50037061  0.99830157  0.60813155  1
  C  C35  1  0.50013895  0.49942968  0.70562684  1
  C  C36  1  0.00254814  0.00192602  0.89926428  1
  C  C37  1  0.99686854  0.50002603  0.80712998  1
  C  C38  1  0.50108013  -0.00180830  0.80594989  1
  C  C39  1  0.49564470  0.49612678  0.89396653  1
