# generated using pymatgen
data_HfZrTiNiMoC5
_symmetry_space_group_name_H-M   'P 1'
_cell_length_a   4.45775365
_cell_length_b   4.45765233
_cell_length_c   22.27737846
_cell_angle_alpha   90.03138377
_cell_angle_beta   90.02014683
_cell_angle_gamma   89.98287484
_symmetry_Int_Tables_number   1
_chemical_formula_structural   HfZrTiNiMoC5
_chemical_formula_sum   'Hf4 Zr4 Ti4 Ni4 Mo4 C20'
_cell_volume   442.67625636
_cell_formula_units_Z   4
loop_
 _symmetry_equiv_pos_site_id
 _symmetry_equiv_pos_as_xyz
  1  'x, y, z'
loop_
 _atom_site_type_symbol
 _atom_site_label
 _atom_site_symmetry_multiplicity
 _atom_site_fract_x
 _atom_site_fract_y
 _atom_site_fract_z
 _atom_site_occupancy
  Hf  Hf0  1  0.50204182  0.50006176  -0.00831490  1
  Hf  Hf1  1  1.00197159  1.00443255  0.20749828  1
  Hf  Hf2  1  0.50066233  0.50139188  0.20326465  1
  Hf  Hf3  1  0.99987230  -0.00181802  0.59453389  1
  Zr  Zr4  1  1.00187247  -0.00238824  -0.00395761  1
  Zr  Zr5  1  0.49709851  0.49625193  0.39894959  1
  Zr  Zr6  1  1.00003488  0.49819494  0.70024654  1
  Zr  Zr7  1  -0.00197671  -0.00315871  0.80547252  1
  Ti  Ti8  1  -0.00082482  0.49555145  0.49494975  1
  Ti  Ti9  1  0.49933027  -0.00268960  0.49449415  1
  Ti  Ti10  1  0.49902300  -0.00219047  0.69942408  1
  Ti  Ti11  1  0.49983069  0.49984282  0.59628667  1
  Ni  Ni12  1  0.49320694  -0.00112854  0.31148434  1
  Ni  Ni13  1  0.00377819  0.99731508  0.39903215  1
  Ni  Ni14  1  1.00060863  0.49387174  0.89925132  1
  Ni  Ni15  1  0.49298194  0.01063902  0.89764392  1
  Mo  Mo16  1  0.01582517  0.48630683  0.09728067  1
  Mo  Mo17  1  0.51901323  0.98441584  0.10097653  1
  Mo  Mo18  1  0.98848135  0.53276499  0.30759343  1
  Mo  Mo19  1  0.49843084  0.49139581  0.80886791  1
  C  C20  1  0.98692644  0.01472465  0.10352593  1
  C  C21  1  0.00051772  0.49860060  1.00124957  1
  C  C22  1  0.50110714  1.00206584  -0.00221377  1
  C  C23  1  0.48716236  0.51515326  0.09838952  1
  C  C24  1  0.00624160  -0.00876768  0.30873963  1
  C  C25  1  1.00042490  0.50256305  0.20397420  1
  C  C26  1  0.49891042  0.00263816  0.19650767  1
  C  C27  1  0.50648939  0.49558159  0.30065748  1
  C  C28  1  0.00028817  -0.00066980  0.49154114  1
  C  C29  1  -0.00241124  0.50068560  0.39871700  1
  C  C30  1  0.49501539  -0.00264631  0.40046997  1
  C  C31  1  0.50009321  0.49890777  0.50238755  1
  C  C32  1  -0.00021770  -0.00128592  0.69735347  1
  C  C33  1  0.00026336  0.49836524  0.59334123  1
  C  C34  1  0.50000247  0.99987015  0.59880289  1
  C  C35  1  0.50026710  0.50217164  0.69888805  1
  C  C36  1  0.00556009  1.00269833  0.90081827  1
  C  C37  1  0.00065666  0.49844645  0.80584083  1
  C  C38  1  0.49837296  1.00400747  0.80101627  1
  C  C39  1  0.50226353  0.50036393  0.89488408  1
