# generated using pymatgen
data_HfMgZrTiMoC5
_symmetry_space_group_name_H-M   'P 1'
_cell_length_a   4.51999139
_cell_length_b   4.51580104
_cell_length_c   22.66570525
_cell_angle_alpha   90.00894770
_cell_angle_beta   89.96634850
_cell_angle_gamma   90.00227115
_symmetry_Int_Tables_number   1
_chemical_formula_structural   HfMgZrTiMoC5
_chemical_formula_sum   'Hf4 Mg4 Zr4 Ti4 Mo4 C20'
_cell_volume   462.63827843
_cell_formula_units_Z   4
loop_
 _symmetry_equiv_pos_site_id
 _symmetry_equiv_pos_as_xyz
  1  'x, y, z'
loop_
 _atom_site_type_symbol
 _atom_site_label
 _atom_site_symmetry_multiplicity
 _atom_site_fract_x
 _atom_site_fract_y
 _atom_site_fract_z
 _atom_site_occupancy
  Hf  Hf0  1  0.50013380  0.99918641  0.09943174  1
  Hf  Hf1  1  0.49868263  0.50037028  0.20343285  1
  Hf  Hf2  1  1.00439903  0.50128692  0.50271800  1
  Hf  Hf3  1  0.50131195  0.50217033  0.39991248  1
  Mg  Mg4  1  0.99394863  0.50365420  0.30285596  1
  Mg  Mg5  1  1.00021765  0.99906472  0.60245122  1
  Mg  Mg6  1  0.99889202  1.00132921  0.79733586  1
  Mg  Mg7  1  0.49894965  0.49917548  0.79777941  1
  Zr  Zr8  1  0.99989650  1.00043484  0.99465421  1
  Zr  Zr9  1  0.49934144  0.49957983  -0.00542363  1
  Zr  Zr10  1  -0.00155264  -0.00001162  0.20545465  1
  Zr  Zr11  1  0.50118181  0.50062325  0.60375908  1
  Ti  Ti12  1  1.00010898  0.49742305  0.10086827  1
  Ti  Ti13  1  1.00094234  0.00307174  0.39963754  1
  Ti  Ti14  1  0.49863167  1.00045744  0.70985073  1
  Ti  Ti15  1  0.50073720  -0.00223364  0.88700068  1
  Mo  Mo16  1  0.47623871  0.01872285  0.30639770  1
  Mo  Mo17  1  0.52143403  1.01016186  0.50424512  1
  Mo  Mo18  1  0.01387000  0.47277766  0.70192433  1
  Mo  Mo19  1  0.98850085  0.51288218  0.88665679  1
  C  C20  1  1.00029096  0.00204042  0.10012328  1
  C  C21  1  -0.00027235  0.50006151  -0.00097800  1
  C  C22  1  0.49979307  0.99954179  0.99475811  1
  C  C23  1  0.49980392  0.49941378  0.10048317  1
  C  C24  1  0.01329677  0.99918775  0.30727392  1
  C  C25  1  0.99843810  0.49982756  0.19576193  1
  C  C26  1  0.49990737  0.99818901  0.20626863  1
  C  C27  1  0.49820488  0.48350999  0.30163386  1
  C  C28  1  0.98978695  0.99992889  0.49737522  1
  C  C29  1  0.00159637  0.49761482  0.40361032  1
  C  C30  1  0.50301562  0.99817100  0.39929142  1
  C  C31  1  0.50135517  0.49011368  0.50042877  1
  C  C32  1  -0.00216674  0.01961224  0.70103738  1
  C  C33  1  0.00018550  0.50289985  0.60973271  1
  C  C34  1  0.49868543  -0.00179846  0.59258643  1
  C  C35  1  0.48923343  0.50271098  0.70229819  1
  C  C36  1  1.00205154  -0.01128902  0.89440010  1
  C  C37  1  0.99885259  0.50233879  0.80078642  1
  C  C38  1  0.49913606  0.99943126  0.79726558  1
  C  C39  1  0.51216319  0.49770657  0.89453607  1
