# generated using pymatgen
data_HfZrTiVMoC5
_symmetry_space_group_name_H-M   'P 1'
_cell_length_a   4.46935308
_cell_length_b   4.46794935
_cell_length_c   22.27506190
_cell_angle_alpha   90.00444986
_cell_angle_beta   90.01761947
_cell_angle_gamma   90.00576380
_symmetry_Int_Tables_number   1
_chemical_formula_structural   HfZrTiVMoC5
_chemical_formula_sum   'Hf4 Zr4 Ti4 V4 Mo4 C20'
_cell_volume   444.80719343
_cell_formula_units_Z   4
loop_
 _symmetry_equiv_pos_site_id
 _symmetry_equiv_pos_as_xyz
  1  'x, y, z'
loop_
 _atom_site_type_symbol
 _atom_site_label
 _atom_site_symmetry_multiplicity
 _atom_site_fract_x
 _atom_site_fract_y
 _atom_site_fract_z
 _atom_site_occupancy
  Hf  Hf0  1  -0.00060636  -0.00030904  0.19828832  1
  Hf  Hf1  1  0.99943397  -0.00056520  0.40130503  1
  Hf  Hf2  1  1.00041303  0.49912820  0.50615357  1
  Hf  Hf3  1  0.49988058  0.49831863  0.79604316  1
  Zr  Zr4  1  0.99797817  0.49896164  0.09822720  1
  Zr  Zr5  1  0.49615598  0.50032464  0.99862582  1
  Zr  Zr6  1  0.49803729  1.00083987  0.29878462  1
  Zr  Zr7  1  0.50034913  -0.00079072  0.50872371  1
  Ti  Ti8  1  0.49970993  0.49968927  0.19899626  1
  Ti  Ti9  1  0.49887394  0.49984329  0.40051598  1
  Ti  Ti10  1  0.49955089  0.49856773  0.60719493  1
  Ti  Ti11  1  0.00105738  0.00020361  0.79518424  1
  V  V12  1  0.49100914  -0.00174067  0.09843343  1
  V  V13  1  0.99168537  0.50321106  0.29975241  1
  V  V14  1  1.00027000  1.00222373  0.61065621  1
  V  V15  1  0.49085418  -0.00490584  0.69931106  1
  Mo  Mo16  1  0.98206206  1.00747563  0.99141795  1
  Mo  Mo17  1  0.99097486  0.52283036  0.69629957  1
  Mo  Mo18  1  -0.01403184  0.52456626  0.89569603  1
  Mo  Mo19  1  0.48603102  0.01201575  0.89485265  1
  C  C20  1  0.01379453  0.99811382  0.09255139  1
  C  C21  1  1.00008047  0.48844020  0.99231129  1
  C  C22  1  0.51438243  0.99839502  -0.00094096  1
  C  C23  1  0.49884348  0.50007846  0.10263517  1
  C  C24  1  0.99884145  -0.00613029  0.29953367  1
  C  C25  1  1.00080145  0.49909822  0.20483585  1
  C  C26  1  0.50045352  0.00000305  0.19225943  1
  C  C27  1  0.51125153  0.50022770  0.30007790  1
  C  C28  1  0.00056000  -0.00115058  0.51170897  1
  C  C29  1  0.00150384  0.49910277  0.39746659  1
  C  C30  1  0.49966129  0.99976471  0.40302876  1
  C  C31  1  0.50087145  0.49934712  0.50263084  1
  C  C32  1  1.00849339  0.99975702  0.70094680  1
  C  C33  1  0.00045931  0.49503617  0.60640775  1
  C  C34  1  0.50185458  -0.00085452  0.61108975  1
  C  C35  1  0.50388048  0.49957380  0.69871906  1
  C  C36  1  0.01518272  -0.00890111  0.89718850  1
  C  C37  1  1.00112656  0.49583366  0.79811586  1
  C  C38  1  0.50254059  0.99790281  0.79771439  1
  C  C39  1  0.51160231  0.48924554  0.89718610  1
