# generated using pymatgen
data_HfZrTiCoMoC5
_symmetry_space_group_name_H-M   'P 1'
_cell_length_a   4.47368581
_cell_length_b   4.50394288
_cell_length_c   21.86381581
_cell_angle_alpha   90.11169655
_cell_angle_beta   89.99539788
_cell_angle_gamma   90.01019321
_symmetry_Int_Tables_number   1
_chemical_formula_structural   HfZrTiCoMoC5
_chemical_formula_sum   'Hf4 Zr4 Ti4 Co4 Mo4 C20'
_cell_volume   440.53810661
_cell_formula_units_Z   4
loop_
 _symmetry_equiv_pos_site_id
 _symmetry_equiv_pos_as_xyz
  1  'x, y, z'
loop_
 _atom_site_type_symbol
 _atom_site_label
 _atom_site_symmetry_multiplicity
 _atom_site_fract_x
 _atom_site_fract_y
 _atom_site_fract_z
 _atom_site_occupancy
  Hf  Hf0  1  0.50553707  -0.00012996  0.09874986  1
  Hf  Hf1  1  0.49820211  1.00415152  0.30632415  1
  Hf  Hf2  1  0.50229580  0.50177255  0.20235739  1
  Hf  Hf3  1  0.00114269  0.49829241  0.89209840  1
  Zr  Zr4  1  0.99763963  1.00147557  0.40561824  1
  Zr  Zr5  1  -0.00877879  0.49638009  0.50341152  1
  Zr  Zr6  1  0.51452845  0.99905751  0.69887328  1
  Zr  Zr7  1  0.50648463  0.00024091  0.89423339  1
  Ti  Ti8  1  0.00228694  0.50288562  0.09680584  1
  Ti  Ti9  1  0.00191826  0.00031843  0.20102748  1
  Ti  Ti10  1  0.00128007  0.99978328  0.60229715  1
  Ti  Ti11  1  0.49758791  0.49785480  0.59976350  1
  Co  Co12  1  0.46568663  -0.04557919  0.50472548  1
  Co  Co13  1  0.46647829  0.53984377  0.40510036  1
  Co  Co14  1  0.02463661  0.95147584  0.79559921  1
  Co  Co15  1  0.51856914  0.54322352  0.79457155  1
  Mo  Mo16  1  0.01669619  0.02464755  -0.00039719  1
  Mo  Mo17  1  0.47855653  0.48491962  0.99811168  1
  Mo  Mo18  1  -0.01225979  0.49859754  0.30444229  1
  Mo  Mo19  1  1.02322562  0.48308416  0.70203569  1
  C  C20  1  1.00452090  0.00192755  0.09709612  1
  C  C21  1  1.00455969  0.49679437  0.99846261  1
  C  C22  1  0.49697866  1.00368465  -0.00262208  1
  C  C23  1  0.50454241  0.50059060  0.09524801  1
  C  C24  1  0.99999061  0.00963623  0.29826932  1
  C  C25  1  0.00442801  0.50487418  0.19933144  1
  C  C26  1  0.50278011  0.00208470  0.20237573  1
  C  C27  1  0.51354357  0.50387620  0.31185485  1
  C  C28  1  0.03827508  0.00113351  0.50832849  1
  C  C29  1  0.04472593  0.49956695  0.39704511  1
  C  C30  1  0.50229941  0.95533588  0.41397204  1
  C  C31  1  0.49518851  0.53954646  0.49807278  1
  C  C32  1  0.01127374  1.00969604  0.70460967  1
  C  C33  1  -0.00696659  0.50109546  0.60692094  1
  C  C34  1  0.50363285  -0.00074567  0.59259491  1
  C  C35  1  0.49845739  0.49718304  0.70250917  1
  C  C36  1  0.00417944  0.99960337  0.89120407  1
  C  C37  1  -0.06326299  0.54743812  0.79175183  1
  C  C38  1  0.44182017  0.94880362  0.79625917  1
  C  C39  1  0.50101934  0.49769151  0.89115027  1
