# generated using pymatgen
data_HfZrTiNbVC5
_symmetry_space_group_name_H-M   'P 1'
_cell_length_a   4.49346755
_cell_length_b   4.49368744
_cell_length_c   22.44961494
_cell_angle_alpha   90.00226421
_cell_angle_beta   90.00642114
_cell_angle_gamma   90.00097008
_symmetry_Int_Tables_number   1
_chemical_formula_structural   HfZrTiNbVC5
_chemical_formula_sum   'Hf4 Zr4 Ti4 Nb4 V4 C20'
_cell_volume   453.30798051
_cell_formula_units_Z   4
loop_
 _symmetry_equiv_pos_site_id
 _symmetry_equiv_pos_as_xyz
  1  'x, y, z'
loop_
 _atom_site_type_symbol
 _atom_site_label
 _atom_site_symmetry_multiplicity
 _atom_site_fract_x
 _atom_site_fract_y
 _atom_site_fract_z
 _atom_site_occupancy
  Hf  Hf0  1  -0.00043929  1.00024032  0.19279106  1
  Hf  Hf1  1  0.00044866  0.49956110  0.50308142  1
  Hf  Hf2  1  1.00159892  -0.00091467  0.60513281  1
  Hf  Hf3  1  0.00052681  0.99993846  0.80341211  1
  Zr  Zr4  1  0.49969931  0.50098119  0.99604886  1
  Zr  Zr5  1  0.49993087  0.99997158  0.29975028  1
  Zr  Zr6  1  0.49979929  0.50042021  0.19379807  1
  Zr  Zr7  1  0.50047852  0.99946207  0.50309644  1
  Ti  Ti8  1  0.99890458  0.00054805  -0.00208015  1
  Ti  Ti9  1  -0.00003000  0.50027450  0.09150499  1
  Ti  Ti10  1  1.00097814  0.49947000  0.70367535  1
  Ti  Ti11  1  0.50121081  0.49995188  0.80068574  1
  Nb  Nb12  1  1.00000988  0.50002602  0.30334505  1
  Nb  Nb13  1  0.49968308  0.49932024  0.40187400  1
  Nb  Nb14  1  0.50041635  0.99990040  0.70248351  1
  Nb  Nb15  1  0.50037429  0.99990840  0.89993974  1
  V  V16  1  0.49237414  0.00728221  0.09250636  1
  V  V17  1  0.99869160  0.99482971  0.40171624  1
  V  V18  1  0.50523709  0.49686684  0.60728500  1
  V  V19  1  -0.00020004  0.50121355  0.89880751  1
  C  C20  1  1.00748098  0.99939103  0.09233871  1
  C  C21  1  0.99981821  0.49966077  0.99447992  1
  C  C22  1  0.50126159  0.00034863  1.00023513  1
  C  C23  1  0.49938136  0.49181009  0.09479819  1
  C  C24  1  1.00020370  0.00073857  0.30290687  1
  C  C25  1  0.99968029  0.50024645  0.19700640  1
  C  C26  1  0.50053563  0.99974526  0.19013787  1
  C  C27  1  0.49993024  0.49969710  0.30222228  1
  C  C28  1  1.00057374  -0.00018508  0.49759556  1
  C  C29  1  -0.00046664  0.50494600  0.40099596  1
  C  C30  1  0.50164775  0.99937504  0.40121738  1
  C  C31  1  0.49998197  0.49975261  0.50799902  1
  C  C32  1  1.00039613  0.99976031  0.70350733  1
  C  C33  1  -0.00784552  0.49993664  0.60692261  1
  C  C34  1  0.50103159  0.00432403  0.60583705  1
  C  C35  1  0.49900678  0.50035396  0.70160048  1
  C  C36  1  0.00033159  0.99921908  0.90283399  1
  C  C37  1  -0.00064314  0.49984115  0.80276913  1
  C  C38  1  0.50019152  0.00053409  0.80172639  1
  C  C39  1  0.50025770  0.50010858  0.89444545  1
