# generated using pymatgen
data_HfZrScTiNbC5
_symmetry_space_group_name_H-M   'P 1'
_cell_length_a   4.57472833
_cell_length_b   4.57620427
_cell_length_c   22.92292323
_cell_angle_alpha   90.00090482
_cell_angle_beta   90.00393548
_cell_angle_gamma   90.00035251
_symmetry_Int_Tables_number   1
_chemical_formula_structural   HfZrScTiNbC5
_chemical_formula_sum   'Hf4 Zr4 Sc4 Ti4 Nb4 C20'
_cell_volume   479.88890591
_cell_formula_units_Z   4
loop_
 _symmetry_equiv_pos_site_id
 _symmetry_equiv_pos_as_xyz
  1  'x, y, z'
loop_
 _atom_site_type_symbol
 _atom_site_label
 _atom_site_symmetry_multiplicity
 _atom_site_fract_x
 _atom_site_fract_y
 _atom_site_fract_z
 _atom_site_occupancy
  Hf  Hf0  1  0.50071131  0.50013480  1.00072604  1
  Hf  Hf1  1  0.50038666  0.50019185  0.20225209  1
  Hf  Hf2  1  0.49968492  0.99996191  0.49681476  1
  Hf  Hf3  1  0.49995029  0.49999412  0.59702953  1
  Zr  Zr4  1  0.49946646  0.00010422  0.10036720  1
  Zr  Zr5  1  0.00019741  0.00022071  0.20244224  1
  Zr  Zr6  1  0.99960107  0.50007293  0.69752544  1
  Zr  Zr7  1  0.99992781  1.00005358  0.80153861  1
  Sc  Sc8  1  0.49999825  0.50016515  0.39891293  1
  Sc  Sc9  1  0.49964477  0.00006197  0.69783249  1
  Sc  Sc10  1  1.00024594  0.50008750  0.90183555  1
  Sc  Sc11  1  0.49987738  0.50006853  0.80194331  1
  Ti  Ti12  1  0.00171264  0.50010458  0.10019680  1
  Ti  Ti13  1  -0.00082916  1.00119760  0.39956038  1
  Ti  Ti14  1  0.99847743  0.00004180  0.59710177  1
  Ti  Ti15  1  0.50056340  0.00015778  0.90109593  1
  Nb  Nb16  1  1.00043088  1.00023650  1.00007774  1
  Nb  Nb17  1  0.00057458  0.50044298  0.30384623  1
  Nb  Nb18  1  0.49988945  0.99974936  0.30369596  1
  Nb  Nb19  1  -0.00037243  0.49994432  0.49672021  1
  C  C20  1  0.99921883  0.99992125  0.09979268  1
  C  C21  1  0.00042085  0.50008247  0.00665953  1
  C  C22  1  0.50028401  0.00011242  -0.00156647  1
  C  C23  1  0.49741580  0.50010313  0.10237102  1
  C  C24  1  0.00010118  -0.00062488  0.30521989  1
  C  C25  1  -0.00011515  0.50016950  0.20021706  1
  C  C26  1  0.50020154  0.00038052  0.20433683  1
  C  C27  1  0.49978879  0.50023197  0.30013135  1
  C  C28  1  0.00014384  -0.00013993  0.49595227  1
  C  C29  1  1.00027348  0.49972759  0.39870589  1
  C  C30  1  0.50062184  1.00004050  0.39816457  1
  C  C31  1  0.49991399  0.49998844  0.49764672  1
  C  C32  1  0.99965533  0.00003731  0.69187852  1
  C  C33  1  1.00057490  0.49996654  0.59303094  1
  C  C34  1  0.50236840  0.00003467  0.59528420  1
  C  C35  1  0.49971903  0.50007860  0.69650954  1
  C  C36  1  0.99973601  -0.00006258  0.90470273  1
  C  C37  1  1.00000106  0.50017342  0.79781593  1
  C  C38  1  0.49984655  0.00010419  0.80781104  1
  C  C39  1  0.49992078  0.50000688  0.90369311  1
