# generated using pymatgen
data_HfMgZrTiNbC5
_symmetry_space_group_name_H-M   'P 1'
_cell_length_a   4.54280243
_cell_length_b   4.54394831
_cell_length_c   22.78971465
_cell_angle_alpha   89.99536425
_cell_angle_beta   90.00210622
_cell_angle_gamma   89.99931913
_symmetry_Int_Tables_number   1
_chemical_formula_structural   HfMgZrTiNbC5
_chemical_formula_sum   'Hf4 Mg4 Zr4 Ti4 Nb4 C20'
_cell_volume   470.43120046
_cell_formula_units_Z   4
loop_
 _symmetry_equiv_pos_site_id
 _symmetry_equiv_pos_as_xyz
  1  'x, y, z'
loop_
 _atom_site_type_symbol
 _atom_site_label
 _atom_site_symmetry_multiplicity
 _atom_site_fract_x
 _atom_site_fract_y
 _atom_site_fract_z
 _atom_site_occupancy
  Hf  Hf0  1  -0.00021686  0.49962909  0.30551267  1
  Hf  Hf1  1  0.50018426  0.50014309  0.20195771  1
  Hf  Hf2  1  0.50002007  -0.00029908  0.49054631  1
  Hf  Hf3  1  0.49989667  1.00013296  0.90311962  1
  Mg  Mg4  1  -0.00002377  0.49961371  0.10383609  1
  Mg  Mg5  1  0.99968153  0.99925678  0.39757960  1
  Mg  Mg6  1  0.49982600  0.49961056  0.39878641  1
  Mg  Mg7  1  0.50020251  0.00088089  0.69717031  1
  Zr  Zr8  1  0.50007845  0.99975575  0.10302819  1
  Zr  Zr9  1  1.00003946  1.00008063  0.59708931  1
  Zr  Zr10  1  -0.00006637  -0.00030985  0.79739657  1
  Zr  Zr11  1  -0.00006233  0.49977061  0.90291993  1
  Ti  Ti12  1  -0.00011702  -0.00202633  0.00736099  1
  Ti  Ti13  1  0.99937408  -0.00209014  0.20289798  1
  Ti  Ti14  1  0.49938605  -0.00025719  0.30455465  1
  Ti  Ti15  1  0.00010208  0.49927032  0.49162370  1
  Nb  Nb16  1  0.50010928  0.49991257  0.00609968  1
  Nb  Nb17  1  1.00088320  0.50086769  0.69701776  1
  Nb  Nb18  1  0.50015563  0.50011081  0.59637502  1
  Nb  Nb19  1  0.50003489  0.49919069  0.79536660  1
  C  C20  1  1.00020760  0.00060085  0.10077750  1
  C  C21  1  0.00010121  0.50215969  1.00282248  1
  C  C22  1  0.50023402  0.00056757  0.00211774  1
  C  C23  1  0.49988170  0.49991522  0.09930149  1
  C  C24  1  0.00082576  -0.00010715  0.29559656  1
  C  C25  1  1.00004555  0.50253690  0.20226298  1
  C  C26  1  0.50141993  1.00081518  0.20427465  1
  C  C27  1  0.49953907  0.49972492  0.30045465  1
  C  C28  1  0.00002010  0.00168258  0.49678894  1
  C  C29  1  0.99973242  0.49966789  0.40528623  1
  C  C30  1  0.49992450  0.99957436  0.39219171  1
  C  C31  1  0.49970426  0.50093282  0.50092483  1
  C  C32  1  1.00002376  0.99949287  0.69854114  1
  C  C33  1  0.99973704  0.50005535  0.59945995  1
  C  C34  1  0.49996025  0.99973752  0.59535057  1
  C  C35  1  0.49935654  0.50042979  0.69922667  1
  C  C36  1  -0.00006893  0.00016939  0.90625082  1
  C  C37  1  -0.00031034  0.49981192  0.79692927  1
  C  C38  1  0.49991476  1.00071314  0.80144340  1
  C  C39  1  0.49985561  0.50041012  0.90013943  1
