# generated using pymatgen
data_HfZrTiMnNbC5
_symmetry_space_group_name_H-M   'P 1'
_cell_length_a   4.51588782
_cell_length_b   4.51850583
_cell_length_c   22.32388665
_cell_angle_alpha   89.97477138
_cell_angle_beta   89.87573592
_cell_angle_gamma   90.16056421
_symmetry_Int_Tables_number   1
_chemical_formula_structural   HfZrTiMnNbC5
_chemical_formula_sum   'Hf4 Zr4 Ti4 Mn4 Nb4 C20'
_cell_volume   455.51746346
_cell_formula_units_Z   4
loop_
 _symmetry_equiv_pos_site_id
 _symmetry_equiv_pos_as_xyz
  1  'x, y, z'
loop_
 _atom_site_type_symbol
 _atom_site_label
 _atom_site_symmetry_multiplicity
 _atom_site_fract_x
 _atom_site_fract_y
 _atom_site_fract_z
 _atom_site_occupancy
  Hf  Hf0  1  0.99714114  0.50469647  0.29263352  1
  Hf  Hf1  1  0.99941315  0.49793458  0.50482076  1
  Hf  Hf2  1  0.99994272  1.00122546  0.60582242  1
  Hf  Hf3  1  0.50364210  0.50072373  0.80022587  1
  Zr  Zr4  1  0.49988863  0.49345801  0.00170185  1
  Zr  Zr5  1  1.00355654  0.99757094  0.39691480  1
  Zr  Zr6  1  0.50146318  0.49428416  0.39726071  1
  Zr  Zr7  1  0.50072766  0.00160832  0.90065993  1
  Ti  Ti8  1  -0.00525534  0.50506062  0.09926781  1
  Ti  Ti9  1  0.49563920  0.51139586  0.19523993  1
  Ti  Ti10  1  1.00216858  0.50018568  0.70308002  1
  Ti  Ti11  1  1.00248414  1.00255277  0.80118164  1
  Mn  Mn12  1  0.54765329  0.95470871  0.09822585  1
  Mn  Mn13  1  0.46002225  0.04416621  0.28544319  1
  Mn  Mn14  1  0.46063652  0.53860093  0.60469807  1
  Mn  Mn15  1  0.03471912  0.53804448  0.89961523  1
  Nb  Nb16  1  1.00221623  -0.00053453  0.00176269  1
  Nb  Nb17  1  -0.00507381  0.00635973  0.19325961  1
  Nb  Nb18  1  0.50115784  -0.00338888  0.50426827  1
  Nb  Nb19  1  0.50219753  0.00298969  0.70199097  1
  C  C20  1  -0.03555195  0.00486526  0.09750154  1
  C  C21  1  -0.00118489  0.49563935  -0.00544899  1
  C  C22  1  0.49917528  -0.00299578  0.00902235  1
  C  C23  1  0.49258852  0.54212169  0.10245847  1
  C  C24  1  0.03718785  0.00123335  0.29336978  1
  C  C25  1  0.99593635  0.50451800  0.19296882  1
  C  C26  1  0.49920299  1.00446814  0.20012922  1
  C  C27  1  0.49862849  0.46187712  0.29270597  1
  C  C28  1  0.99929653  0.99903609  0.50324944  1
  C  C29  1  1.00051922  0.49870000  0.39822262  1
  C  C30  1  0.50438469  0.99350032  0.40042357  1
  C  C31  1  0.50030606  0.49480031  0.51036932  1
  C  C32  1  1.00099737  1.00040382  0.70604136  1
  C  C33  1  1.03924986  0.49856482  0.60741141  1
  C  C34  1  0.50298128  -0.03761153  0.60263073  1
  C  C35  1  0.50574138  0.49904756  0.69549729  1
  C  C36  1  0.99619646  0.95404953  0.89973385  1
  C  C37  1  1.00142270  0.49594225  0.80636415  1
  C  C38  1  0.50307923  1.00041206  0.79956985  1
  C  C39  1  0.45314928  0.49912302  0.90003652  1
