# generated using pymatgen
data_HfZrTiNbCoC5
_symmetry_space_group_name_H-M   'P 1'
_cell_length_a   4.53595771
_cell_length_b   4.55151135
_cell_length_c   21.68986578
_cell_angle_alpha   90.27763076
_cell_angle_beta   90.06397031
_cell_angle_gamma   90.14863703
_symmetry_Int_Tables_number   1
_chemical_formula_structural   HfZrTiNbCoC5
_chemical_formula_sum   'Hf4 Zr4 Ti4 Nb4 Co4 C20'
_cell_volume   447.79027256
_cell_formula_units_Z   4
loop_
 _symmetry_equiv_pos_site_id
 _symmetry_equiv_pos_as_xyz
  1  'x, y, z'
loop_
 _atom_site_type_symbol
 _atom_site_label
 _atom_site_symmetry_multiplicity
 _atom_site_fract_x
 _atom_site_fract_y
 _atom_site_fract_z
 _atom_site_occupancy
  Hf  Hf0  1  1.00801801  0.02007242  0.20438667  1
  Hf  Hf1  1  0.50765004  0.51557161  0.20564365  1
  Hf  Hf2  1  0.00673576  -0.01104956  0.58887390  1
  Hf  Hf3  1  0.50301809  1.00208344  0.90075011  1
  Zr  Zr4  1  0.50078195  0.50578449  1.00639723  1
  Zr  Zr5  1  0.50931766  1.01844737  0.31300900  1
  Zr  Zr6  1  0.50776853  -0.00448350  0.48543365  1
  Zr  Zr7  1  0.00414544  0.49700255  0.69454044  1
  Ti  Ti8  1  0.51380476  0.00379122  0.10517656  1
  Ti  Ti9  1  1.01131551  0.52312104  0.30642105  1
  Ti  Ti10  1  0.50443143  -0.00132946  0.69408155  1
  Ti  Ti11  1  0.00195333  0.50228081  0.90134512  1
  Nb  Nb12  1  1.00377000  0.00886262  0.00726400  1
  Nb  Nb13  1  0.50810262  0.49318819  0.58750215  1
  Nb  Nb14  1  1.00253834  0.99825912  0.79815370  1
  Nb  Nb15  1  0.50286597  0.49878352  0.79810390  1
  Co  Co16  1  0.96700570  0.55389144  0.10520949  1
  Co  Co17  1  0.00690146  0.08192457  0.39930762  1
  Co  Co18  1  0.04174457  0.45388488  0.49509365  1
  Co  Co19  1  0.55594630  0.50853450  0.40190219  1
  C  C20  1  1.01190095  0.96609521  0.10395996  1
  C  C21  1  0.00245673  0.50467987  0.00951509  1
  C  C22  1  0.50226694  1.00702491  0.00561710  1
  C  C23  1  0.55406682  0.50710780  0.10688721  1
  C  C24  1  1.00916788  1.04404877  0.31111332  1
  C  C25  1  0.00971695  0.51981757  0.20259203  1
  C  C26  1  0.50610348  0.01654094  0.20644682  1
  C  C27  1  0.52985581  0.51925575  0.31260828  1
  C  C28  1  0.00383166  0.04766104  0.48658363  1
  C  C29  1  0.97511080  0.51614535  0.40848011  1
  C  C30  1  0.20293417  -0.28503364  0.39555233  1
  C  C31  1  0.48959983  0.49515714  0.48844421  1
  C  C32  1  0.00350791  0.99736552  0.69579801  1
  C  C33  1  0.00735917  0.49324135  0.58506739  1
  C  C34  1  0.50681698  0.98889017  0.59230887  1
  C  C35  1  0.50394033  0.49487755  0.69338626  1
  C  C36  1  0.00335110  0.99977027  0.90154811  1
  C  C37  1  1.00285907  0.49814928  0.80222320  1
  C  C38  1  0.50255715  0.99834244  0.79450124  1
  C  C39  1  0.50376447  0.50161077  0.89848130  1
