# generated using pymatgen
data_HfZrTaTiNbC5
_symmetry_space_group_name_H-M   'P 1'
_cell_length_a   4.53765744
_cell_length_b   4.53771480
_cell_length_c   22.70294317
_cell_angle_alpha   89.99914583
_cell_angle_beta   90.00005424
_cell_angle_gamma   89.99932109
_symmetry_Int_Tables_number   1
_chemical_formula_structural   HfZrTaTiNbC5
_chemical_formula_sum   'Hf4 Zr4 Ta4 Ti4 Nb4 C20'
_cell_volume   467.46711606
_cell_formula_units_Z   4
loop_
 _symmetry_equiv_pos_site_id
 _symmetry_equiv_pos_as_xyz
  1  'x, y, z'
loop_
 _atom_site_type_symbol
 _atom_site_label
 _atom_site_symmetry_multiplicity
 _atom_site_fract_x
 _atom_site_fract_y
 _atom_site_fract_z
 _atom_site_occupancy
  Hf  Hf0  1  0.00008052  0.50010685  0.10101884  1
  Hf  Hf1  1  0.00018965  0.00061826  0.20104256  1
  Hf  Hf2  1  1.00001768  0.99995397  0.40319712  1
  Hf  Hf3  1  0.49993629  0.00005310  0.89970826  1
  Zr  Zr4  1  0.49988955  0.50006702  0.00014245  1
  Zr  Zr5  1  0.00004014  0.50024218  0.30145952  1
  Zr  Zr6  1  0.49992854  0.00013174  0.69468782  1
  Zr  Zr7  1  0.50023022  0.49998591  0.79766634  1
  Ta  Ta8  1  0.50015835  0.00007612  0.10194727  1
  Ta  Ta9  1  0.50007227  0.00012643  0.30093738  1
  Ta  Ta10  1  0.00020695  0.49992666  0.50393321  1
  Ta  Ta11  1  0.00016074  -0.00003209  0.79822694  1
  Ti  Ti12  1  0.50059649  0.50144717  0.20123903  1
  Ti  Ti13  1  -0.00071123  1.00187112  0.59792664  1
  Ti  Ti14  1  0.49854525  0.50089828  0.59725105  1
  Ti  Ti15  1  -0.00168311  0.50001972  0.89970361  1
  Nb  Nb16  1  0.00024310  0.99993374  0.99932179  1
  Nb  Nb17  1  0.50036802  0.00006731  0.50231545  1
  Nb  Nb18  1  0.49995994  0.50023994  0.40411603  1
  Nb  Nb19  1  -0.00002096  0.50044477  0.69451644  1
  C  C20  1  1.00007276  0.00007648  0.09886554  1
  C  C21  1  0.00004624  0.50009573  0.99641641  1
  C  C22  1  0.49984669  0.99999144  1.00351893  1
  C  C23  1  0.50007631  0.49983534  0.10533330  1
  C  C24  1  1.00009679  0.00009814  0.30201597  1
  C  C25  1  -0.00035583  0.49963931  0.20013394  1
  C  C26  1  0.50011653  -0.00061367  0.20184590  1
  C  C27  1  0.50004561  0.49927648  0.30009605  1
  C  C28  1  0.00056882  -0.00022396  0.50357013  1
  C  C29  1  1.00026203  0.49971181  0.40596282  1
  C  C30  1  0.50009082  -0.00065895  0.39969451  1
  C  C31  1  0.50040470  0.49944758  0.50138299  1
  C  C32  1  0.00015218  -0.00014452  0.69800085  1
  C  C33  1  0.00099724  0.49888476  0.59882002  1
  C  C34  1  0.50074178  0.99917020  0.59584478  1
  C  C35  1  0.50046029  0.49980093  0.69284493  1
  C  C36  1  0.00035349  0.00013290  0.89771308  1
  C  C37  1  1.00057481  0.49976970  0.79924067  1
  C  C38  1  0.50021795  -0.00007651  0.79900021  1
  C  C39  1  0.50159029  0.50001505  0.89933529  1
