# generated using pymatgen
data_HfZrTiNbMoC5
_symmetry_space_group_name_H-M   'P 1'
_cell_length_a   4.52542441
_cell_length_b   4.52497209
_cell_length_c   22.59884738
_cell_angle_alpha   90.02010888
_cell_angle_beta   89.99640591
_cell_angle_gamma   90.00135418
_symmetry_Int_Tables_number   1
_chemical_formula_structural   HfZrTiNbMoC5
_chemical_formula_sum   'Hf4 Zr4 Ti4 Nb4 Mo4 C20'
_cell_volume   462.76604096
_cell_formula_units_Z   4
loop_
 _symmetry_equiv_pos_site_id
 _symmetry_equiv_pos_as_xyz
  1  'x, y, z'
loop_
 _atom_site_type_symbol
 _atom_site_label
 _atom_site_symmetry_multiplicity
 _atom_site_fract_x
 _atom_site_fract_y
 _atom_site_fract_z
 _atom_site_occupancy
  Hf  Hf0  1  0.00064035  0.00206960  0.00756590  1
  Hf  Hf1  1  0.49861079  0.49762875  0.20280426  1
  Hf  Hf2  1  1.00024806  -0.00066327  0.79709030  1
  Hf  Hf3  1  0.50052961  1.00032185  0.90249280  1
  Zr  Zr4  1  0.99929010  0.49993671  0.49437314  1
  Zr  Zr5  1  0.49864407  -0.00112938  0.69538367  1
  Zr  Zr6  1  0.49923365  0.49988186  0.59496734  1
  Zr  Zr7  1  0.00090580  0.50042579  0.90256985  1
  Ti  Ti8  1  0.00052577  1.00113543  0.39766958  1
  Ti  Ti9  1  0.49804935  0.99999133  0.49325628  1
  Ti  Ti10  1  0.50000690  0.50110763  0.39731010  1
  Ti  Ti11  1  0.99990950  -0.00093839  0.59454189  1
  Nb  Nb12  1  0.50056536  0.50054518  0.00808733  1
  Nb  Nb13  1  0.99910170  0.99839633  0.20158261  1
  Nb  Nb14  1  0.99946469  0.49913492  0.30245206  1
  Nb  Nb15  1  0.50003349  0.49957931  0.79732674  1
  Mo  Mo16  1  0.97914068  0.51263857  0.10522883  1
  Mo  Mo17  1  0.48856310  0.98000065  0.10543420  1
  Mo  Mo18  1  0.51454731  1.01003258  0.30722119  1
  Mo  Mo19  1  0.99086930  0.49326931  0.69477334  1
  C  C20  1  1.01255036  -0.00095540  0.10620218  1
  C  C21  1  1.00328795  0.50126992  1.00766027  1
  C  C22  1  0.50124758  1.00280707  1.00698548  1
  C  C23  1  0.50813617  0.50402126  0.10291067  1
  C  C24  1  0.99367299  -0.00133690  0.30178313  1
  C  C25  1  1.00016589  0.49838279  0.20074615  1
  C  C26  1  0.50002059  -0.00146133  0.20273356  1
  C  C27  1  0.49881955  0.49404679  0.30239611  1
  C  C28  1  0.00144430  1.00001279  0.49553862  1
  C  C29  1  0.00039733  0.49982513  0.39584017  1
  C  C30  1  0.49981142  -0.00069950  0.39789325  1
  C  C31  1  0.49997072  0.49953541  0.49162256  1
  C  C32  1  -0.00030058  0.00619980  0.69281401  1
  C  C33  1  0.00011829  0.50292644  0.60079274  1
  C  C34  1  0.50101205  1.00003614  0.59003553  1
  C  C35  1  0.50659086  0.49949364  0.70066121  1
  C  C36  1  1.00073676  0.00037219  0.90220347  1
  C  C37  1  1.00333874  0.50019024  0.79608383  1
  C  C38  1  0.50027628  0.99973157  0.80020634  1
  C  C39  1  0.50145823  0.50057242  0.90326608  1
