# generated using pymatgen
data_HfZrTiNbNiC5
_symmetry_space_group_name_H-M   'P 1'
_cell_length_a   4.48938612
_cell_length_b   4.48836077
_cell_length_c   22.44224310
_cell_angle_alpha   89.98641067
_cell_angle_beta   89.99607032
_cell_angle_gamma   89.99718966
_symmetry_Int_Tables_number   1
_chemical_formula_structural   HfZrTiNbNiC5
_chemical_formula_sum   'Hf4 Zr4 Ti4 Nb4 Ni4 C20'
_cell_volume   452.21083776
_cell_formula_units_Z   4
loop_
 _symmetry_equiv_pos_site_id
 _symmetry_equiv_pos_as_xyz
  1  'x, y, z'
loop_
 _atom_site_type_symbol
 _atom_site_label
 _atom_site_symmetry_multiplicity
 _atom_site_fract_x
 _atom_site_fract_y
 _atom_site_fract_z
 _atom_site_occupancy
  Hf  Hf0  1  -0.00157593  0.00035933  0.99547629  1
  Hf  Hf1  1  0.00030560  1.00034999  0.39147710  1
  Hf  Hf2  1  0.99998633  0.99987260  0.60346500  1
  Hf  Hf3  1  0.00015403  0.50031010  0.71057311  1
  Zr  Zr4  1  0.50003809  0.00046475  0.09913313  1
  Zr  Zr5  1  1.00045249  0.50011457  0.49657585  1
  Zr  Zr6  1  0.50059281  0.50051522  0.38858199  1
  Zr  Zr7  1  0.50004360  0.49985434  0.60396779  1
  Ti  Ti8  1  0.50039822  1.00003189  0.49572551  1
  Ti  Ti9  1  0.49978370  1.00031098  0.71063655  1
  Ti  Ti10  1  0.49958296  1.00075289  0.90439017  1
  Ti  Ti11  1  0.50002660  0.50004136  0.81408318  1
  Nb  Nb12  1  1.00139012  0.50054448  0.09667904  1
  Nb  Nb13  1  -0.00067658  1.00119147  0.19926957  1
  Nb  Nb14  1  0.00165754  0.50125661  0.28760211  1
  Nb  Nb15  1  -0.00030855  0.99908781  0.80953102  1
  Ni  Ni16  1  0.49323550  0.50585850  0.99619837  1
  Ni  Ni17  1  0.49061984  0.99767512  0.28994859  1
  Ni  Ni18  1  0.49336957  0.48576553  0.19713977  1
  Ni  Ni19  1  0.99363547  0.49466684  0.90501397  1
  C  C20  1  0.99984622  0.00003144  0.09919741  1
  C  C21  1  0.00678599  0.49936358  0.99673337  1
  C  C22  1  0.49920142  -0.00875349  -0.00377151  1
  C  C23  1  0.50125447  0.49969522  0.09544443  1
  C  C24  1  1.00466903  -0.00007215  0.29346167  1
  C  C25  1  1.00533600  0.50076210  0.19346131  1
  C  C26  1  0.50033557  0.00979256  0.20238608  1
  C  C27  1  0.50002311  0.50323926  0.28656043  1
  C  C28  1  1.00047995  1.00017455  0.49872008  1
  C  C29  1  1.00009515  0.50013179  0.39104713  1
  C  C30  1  0.50023218  1.00042763  0.39853346  1
  C  C31  1  0.50040392  0.50065156  0.49853192  1
  C  C32  1  0.00047365  0.00053214  0.70698001  1
  C  C33  1  1.00005431  0.49995169  0.60480806  1
  C  C34  1  0.50004007  -0.00014292  0.60415294  1
  C  C35  1  0.50038078  0.50032303  0.71162897  1
  C  C36  1  0.99990626  0.00438106  0.90077372  1
  C  C37  1  -0.00020915  0.49913367  0.81224145  1
  C  C38  1  0.49943802  0.99882298  0.80601621  1
  C  C39  1  0.50696569  0.50056625  0.90703423  1
