# generated using pymatgen
data_HfZrTiNbCrC5
_symmetry_space_group_name_H-M   'P 1'
_cell_length_a   4.48735583
_cell_length_b   4.48520525
_cell_length_c   22.36444286
_cell_angle_alpha   89.99102187
_cell_angle_beta   90.00782698
_cell_angle_gamma   90.00832021
_symmetry_Int_Tables_number   1
_chemical_formula_structural   HfZrTiNbCrC5
_chemical_formula_sum   'Hf4 Zr4 Ti4 Nb4 Cr4 C20'
_cell_volume   450.12268396
_cell_formula_units_Z   4
loop_
 _symmetry_equiv_pos_site_id
 _symmetry_equiv_pos_as_xyz
  1  'x, y, z'
loop_
 _atom_site_type_symbol
 _atom_site_label
 _atom_site_symmetry_multiplicity
 _atom_site_fract_x
 _atom_site_fract_y
 _atom_site_fract_z
 _atom_site_occupancy
  Hf  Hf0  1  -0.00082034  1.00128853  0.40352811  1
  Hf  Hf1  1  0.50046109  -0.00058397  0.69580494  1
  Hf  Hf2  1  0.49963145  0.00009579  0.90076036  1
  Hf  Hf3  1  0.50039415  0.49989247  0.79470263  1
  Zr  Zr4  1  0.49968473  0.00007870  0.09623098  1
  Zr  Zr5  1  0.00011154  -0.00068401  0.20131831  1
  Zr  Zr6  1  0.49692328  1.00046397  0.30502241  1
  Zr  Zr7  1  1.00073499  -0.00199361  0.60007723  1
  Ti  Ti8  1  0.50108271  0.50084294  -0.00197451  1
  Ti  Ti9  1  1.00010485  0.49940611  0.50460931  1
  Ti  Ti10  1  0.49980407  -0.00057761  0.50314187  1
  Ti  Ti11  1  0.50056599  0.50037168  0.40571143  1
  Nb  Nb12  1  0.00050306  0.49957271  0.09489342  1
  Nb  Nb13  1  0.50277465  0.49987650  0.20372362  1
  Nb  Nb14  1  0.00020152  0.00025817  0.79671757  1
  Nb  Nb15  1  0.99999270  0.49964168  0.90168357  1
  Cr  Cr16  1  0.99299988  1.01137251  -0.00254336  1
  Cr  Cr17  1  0.98194978  0.51203210  0.30580376  1
  Cr  Cr18  1  1.00894346  0.49445564  0.69477338  1
  Cr  Cr19  1  0.50561566  0.49366538  0.59808360  1
  C  C20  1  0.00003824  -0.00060398  0.09068429  1
  C  C21  1  0.00064207  0.48947024  0.99824229  1
  C  C22  1  0.50996168  1.00018959  -0.00247546  1
  C  C23  1  0.50097871  0.50066208  0.09887534  1
  C  C24  1  0.99694758  0.98029469  0.30270667  1
  C  C25  1  1.00129244  0.49909753  0.20520992  1
  C  C26  1  0.49952331  0.00184650  0.20105528  1
  C  C27  1  0.51841012  0.50008690  0.30532781  1
  C  C28  1  0.00044052  -0.00050612  0.50088934  1
  C  C29  1  1.00097330  0.50060756  0.39911824  1
  C  C30  1  0.49899181  1.00351584  0.40744751  1
  C  C31  1  0.50028574  0.50176460  0.50644409  1
  C  C32  1  0.00043597  0.00611271  0.70131066  1
  C  C33  1  -0.00577706  0.49845140  0.60369457  1
  C  C34  1  0.50150512  1.00902895  0.59627073  1
  C  C35  1  0.48791888  0.50028528  0.68993260  1
  C  C36  1  -0.00005834  1.00000414  0.90345655  1
  C  C37  1  0.00042628  0.49994436  0.79190647  1
  C  C38  1  0.50085915  -0.00046468  0.79836620  1
  C  C39  1  0.49932820  0.50053996  0.89992872  1
