# generated using pymatgen
data_HfZrScTiNiC5
_symmetry_space_group_name_H-M   'P 1'
_cell_length_a   4.52799059
_cell_length_b   4.53529578
_cell_length_c   22.34122332
_cell_angle_alpha   90.00887501
_cell_angle_beta   89.98068300
_cell_angle_gamma   89.99412356
_symmetry_Int_Tables_number   1
_chemical_formula_structural   HfZrScTiNiC5
_chemical_formula_sum   'Hf4 Zr4 Sc4 Ti4 Ni4 C20'
_cell_volume   458.79433699
_cell_formula_units_Z   4
loop_
 _symmetry_equiv_pos_site_id
 _symmetry_equiv_pos_as_xyz
  1  'x, y, z'
loop_
 _atom_site_type_symbol
 _atom_site_label
 _atom_site_symmetry_multiplicity
 _atom_site_fract_x
 _atom_site_fract_y
 _atom_site_fract_z
 _atom_site_occupancy
  Hf  Hf0  1  1.00062911  0.49987361  0.29185669  1
  Hf  Hf1  1  0.49898583  -0.00030735  0.49859234  1
  Hf  Hf2  1  1.00082688  1.00067510  0.60089789  1
  Hf  Hf3  1  0.99977237  0.49922814  0.70332872  1
  Zr  Zr4  1  0.50143062  0.49855030  0.18844481  1
  Zr  Zr5  1  -0.00114343  0.49923499  0.49889302  1
  Zr  Zr6  1  0.49897763  -0.00011138  0.70432459  1
  Zr  Zr7  1  0.99954126  0.50044333  0.90818480  1
  Sc  Sc8  1  1.00130788  0.50220846  0.09788686  1
  Sc  Sc9  1  0.99973384  0.99926098  0.39163758  1
  Sc  Sc10  1  0.50000777  0.49971486  0.39381347  1
  Sc  Sc11  1  0.99911543  1.00003488  0.80895934  1
  Ti  Ti12  1  -0.00181118  0.99994578  0.01004012  1
  Ti  Ti13  1  0.50019856  0.00014238  0.28847509  1
  Ti  Ti14  1  0.49762708  0.00051191  0.91236961  1
  Ti  Ti15  1  0.49928677  0.49964106  0.80925107  1
  Ni  Ni16  1  0.49947247  -0.00187274  0.09605278  1
  Ni  Ni17  1  0.50072838  0.51360862  1.00237104  1
  Ni  Ni18  1  1.00596235  0.00599941  0.19084131  1
  Ni  Ni19  1  0.49050849  0.49066170  0.60160654  1
  C  C20  1  0.99793612  1.00083929  0.10417085  1
  C  C21  1  0.99764506  0.49870498  1.00361370  1
  C  C22  1  0.49969118  -0.01288066  1.00821344  1
  C  C23  1  0.50075451  0.50276946  0.08769387  1
  C  C24  1  0.00045540  -0.00059032  0.28371541  1
  C  C25  1  1.00110349  0.48573283  0.19471055  1
  C  C26  1  0.49377773  -0.00090836  0.18952236  1
  C  C27  1  0.50062266  0.50111041  0.29175435  1
  C  C28  1  0.99840056  0.99877388  0.49794002  1
  C  C29  1  1.00032901  0.49902980  0.39505390  1
  C  C30  1  0.49939841  0.99993069  0.38928223  1
  C  C31  1  0.49883439  0.49985970  0.50552689  1
  C  C32  1  0.99862870  0.99869523  0.70309410  1
  C  C33  1  0.01638502  0.50141656  0.60252043  1
  C  C34  1  0.50142169  0.01557562  0.60095150  1
  C  C35  1  0.49942283  0.49966182  0.70555234  1
  C  C36  1  1.00076346  0.00049395  0.91322369  1
  C  C37  1  0.99977828  0.49989133  0.80461676  1
  C  C38  1  0.49959457  0.00043462  0.81324905  1
  C  C39  1  0.50003365  0.50074434  0.90761948  1
