# generated using pymatgen
data_HfZrTaTiCrC5
_symmetry_space_group_name_H-M   'P 1'
_cell_length_a   4.48173402
_cell_length_b   4.48259284
_cell_length_c   22.36875730
_cell_angle_alpha   89.98863901
_cell_angle_beta   89.98766637
_cell_angle_gamma   90.00814236
_symmetry_Int_Tables_number   1
_chemical_formula_structural   HfZrTaTiCrC5
_chemical_formula_sum   'Hf4 Zr4 Ta4 Ti4 Cr4 C20'
_cell_volume   449.38358704
_cell_formula_units_Z   4
loop_
 _symmetry_equiv_pos_site_id
 _symmetry_equiv_pos_as_xyz
  1  'x, y, z'
loop_
 _atom_site_type_symbol
 _atom_site_label
 _atom_site_symmetry_multiplicity
 _atom_site_fract_x
 _atom_site_fract_y
 _atom_site_fract_z
 _atom_site_occupancy
  Hf  Hf0  1  0.99857747  0.50111110  0.10377237  1
  Hf  Hf1  1  0.00136098  0.50094360  0.29643152  1
  Hf  Hf2  1  -0.00143452  0.50000117  0.49685788  1
  Hf  Hf3  1  0.49992215  0.99880737  0.90726860  1
  Zr  Zr4  1  0.49782354  0.99972773  0.10792276  1
  Zr  Zr5  1  1.00007986  0.50010094  0.69530135  1
  Zr  Zr6  1  0.50012053  1.00057446  0.69300131  1
  Zr  Zr7  1  0.00036409  0.99982910  0.80244188  1
  Ta  Ta8  1  0.00087855  0.00153852  0.00508090  1
  Ta  Ta9  1  0.00062199  0.99964162  0.39260723  1
  Ta  Ta10  1  0.49983623  0.99958635  0.49559174  1
  Ta  Ta11  1  0.50022555  0.49967665  0.80351860  1
  Ti  Ti12  1  0.50128005  0.49632992  0.20520786  1
  Ti  Ti13  1  0.50008571  0.49823615  0.39366999  1
  Ti  Ti14  1  0.00257779  -0.00145022  0.59347799  1
  Ti  Ti15  1  0.99821114  0.49956523  0.90814254  1
  Cr  Cr16  1  0.49319859  0.49182855  0.00359348  1
  Cr  Cr17  1  0.98004183  0.01707332  0.20591006  1
  Cr  Cr18  1  0.50488478  0.99125268  0.29710685  1
  Cr  Cr19  1  0.48294777  0.51562750  0.59094273  1
  C  C20  1  0.99725519  -0.00011627  0.10890567  1
  C  C21  1  0.00833559  0.50063267  0.00179524  1
  C  C22  1  0.50045049  0.01100229  0.00546036  1
  C  C23  1  0.49840487  0.50040428  0.09873770  1
  C  C24  1  -0.00169271  1.00081719  0.29515479  1
  C  C25  1  0.00057940  0.48138751  0.20082539  1
  C  C26  1  0.51511981  -0.00196547  0.21028085  1
  C  C27  1  0.50078146  0.51106854  0.29923968  1
  C  C28  1  0.99895338  0.00114091  0.49436545  1
  C  C29  1  0.00102622  0.49959992  0.39674069  1
  C  C30  1  0.50073643  0.00102281  0.39159983  1
  C  C31  1  0.49936653  0.50000664  0.49823461  1
  C  C32  1  -0.00050495  0.00047936  0.69207113  1
  C  C33  1  1.01738722  0.49989261  0.59511703  1
  C  C34  1  0.50027493  0.98569150  0.59092883  1
  C  C35  1  0.49979995  0.50088880  0.69973214  1
  C  C36  1  1.00003868  -0.00123660  0.90716305  1
  C  C37  1  0.00081873  0.49981056  0.80660799  1
  C  C38  1  0.50011802  -0.00030663  0.80180497  1
  C  C39  1  0.50033208  0.49884723  0.90767264  1
