# generated using pymatgen
data_HfMgZrTaTiC5
_symmetry_space_group_name_H-M   'P 1'
_cell_length_a   4.53747460
_cell_length_b   4.53732729
_cell_length_c   22.84486964
_cell_angle_alpha   89.99950115
_cell_angle_beta   90.00246095
_cell_angle_gamma   90.00046341
_symmetry_Int_Tables_number   1
_chemical_formula_structural   HfMgZrTaTiC5
_chemical_formula_sum   'Hf4 Mg4 Zr4 Ta4 Ti4 C20'
_cell_volume   470.33034343
_cell_formula_units_Z   4
loop_
 _symmetry_equiv_pos_site_id
 _symmetry_equiv_pos_as_xyz
  1  'x, y, z'
loop_
 _atom_site_type_symbol
 _atom_site_label
 _atom_site_symmetry_multiplicity
 _atom_site_fract_x
 _atom_site_fract_y
 _atom_site_fract_z
 _atom_site_occupancy
  Hf  Hf0  1  0.00019401  1.00019128  0.39691383  1
  Hf  Hf1  1  0.49988328  0.00017974  0.49608844  1
  Hf  Hf2  1  0.00016596  0.49995148  0.69793959  1
  Hf  Hf3  1  0.49986032  0.49978754  0.80120044  1
  Mg  Mg4  1  1.00006204  0.49779396  0.10129380  1
  Mg  Mg5  1  0.49959251  0.49861690  1.00480804  1
  Mg  Mg6  1  1.00010500  0.50006945  0.49584875  1
  Mg  Mg7  1  0.49992899  0.99983995  0.90723447  1
  Zr  Zr8  1  0.50056101  0.49863497  0.19982187  1
  Zr  Zr9  1  -0.00062961  0.99996774  0.59521032  1
  Zr  Zr10  1  0.99975878  0.99993149  0.80353028  1
  Zr  Zr11  1  0.00000946  0.50006847  0.90673863  1
  Ta  Ta12  1  -0.00001655  -0.00021172  0.00670665  1
  Ta  Ta13  1  1.00076204  0.99956665  0.19958039  1
  Ta  Ta14  1  0.50007243  0.50009116  0.39695615  1
  Ta  Ta15  1  0.49973588  0.50005925  0.59586520  1
  Ti  Ti16  1  0.49990846  0.99033766  0.09987455  1
  Ti  Ti17  1  0.00120882  0.50042585  0.29921028  1
  Ti  Ti18  1  0.50151386  -0.00025756  0.29850797  1
  Ti  Ti19  1  0.49825420  1.00005425  0.69894063  1
  C  C20  1  0.99992858  1.00074494  0.10453547  1
  C  C21  1  -0.00014670  0.50021927  0.00357375  1
  C  C22  1  0.49987976  0.99980042  1.01025012  1
  C  C23  1  0.49990582  0.51498458  0.10427970  1
  C  C24  1  0.99859232  -0.00003633  0.29694313  1
  C  C25  1  0.00025357  0.49941934  0.20556536  1
  C  C26  1  0.49940179  -0.00004558  0.20270545  1
  C  C27  1  0.49883554  0.50055887  0.30287219  1
  C  C28  1  0.00002334  0.00017479  0.49462124  1
  C  C29  1  -0.00032707  0.49999096  0.39378164  1
  C  C30  1  0.49989315  0.00007938  0.39482561  1
  C  C31  1  0.49991105  0.50011064  0.49731894  1
  C  C32  1  1.00196086  0.99991738  0.69862715  1
  C  C33  1  0.99970943  0.49996695  0.59782082  1
  C  C34  1  0.49985969  0.99997301  0.59900763  1
  C  C35  1  0.50077846  0.49979216  0.69404151  1
  C  C36  1  1.00001861  1.00020665  0.90880315  1
  C  C37  1  0.99977736  0.49987151  0.79870211  1
  C  C38  1  0.49975254  -0.00023895  0.79211262  1
  C  C39  1  0.50008739  0.49972790  0.89736631  1
