# generated using pymatgen
data_HfZrTaTiCoC5
_symmetry_space_group_name_H-M   'P 1'
_cell_length_a   4.50095708
_cell_length_b   4.52848541
_cell_length_c   22.11715036
_cell_angle_alpha   89.84087823
_cell_angle_beta   89.95514760
_cell_angle_gamma   89.88774480
_symmetry_Int_Tables_number   1
_chemical_formula_structural   HfZrTaTiCoC5
_chemical_formula_sum   'Hf4 Zr4 Ta4 Ti4 Co4 C20'
_cell_volume   450.80048595
_cell_formula_units_Z   4
loop_
 _symmetry_equiv_pos_site_id
 _symmetry_equiv_pos_as_xyz
  1  'x, y, z'
loop_
 _atom_site_type_symbol
 _atom_site_label
 _atom_site_symmetry_multiplicity
 _atom_site_fract_x
 _atom_site_fract_y
 _atom_site_fract_z
 _atom_site_occupancy
  Hf  Hf0  1  0.49446967  0.50600951  -0.00240951  1
  Hf  Hf1  1  0.99798004  -0.01361968  0.20331705  1
  Hf  Hf2  1  1.00063884  1.00349190  0.59990296  1
  Hf  Hf3  1  0.50074823  0.50322755  0.59989253  1
  Zr  Zr4  1  0.49813772  -0.00402302  0.09831956  1
  Zr  Zr5  1  0.00196341  0.50689826  0.49361155  1
  Zr  Zr6  1  0.50457539  0.50946432  0.38835588  1
  Zr  Zr7  1  0.00078709  0.50107664  0.70868360  1
  Ta  Ta8  1  0.99688999  0.49371732  0.09733746  1
  Ta  Ta9  1  1.00110282  0.00478648  0.38989160  1
  Ta  Ta10  1  0.50015956  1.00130589  0.70807174  1
  Ta  Ta11  1  0.49792473  0.50060999  0.80941316  1
  Ti  Ti12  1  0.50320135  0.49383207  0.20122190  1
  Ti  Ti13  1  0.50157554  1.00744055  0.49285654  1
  Ti  Ti14  1  0.00191715  -0.00396142  0.81326967  1
  Ti  Ti15  1  0.50693673  0.00319033  0.90446463  1
  Co  Co16  1  0.03738085  0.05035202  0.99812284  1
  Co  Co17  1  0.04388443  0.44803276  0.29299240  1
  Co  Co18  1  0.47653503  0.04225805  0.29571310  1
  Co  Co19  1  -0.04125139  0.44484877  0.90530366  1
  C  C20  1  0.99740319  0.99381319  0.09125194  1
  C  C21  1  -0.00528001  0.46081219  -0.00291146  1
  C  C22  1  0.45929079  0.00155017  -0.00307385  1
  C  C23  1  0.49782117  0.49498002  0.10186442  1
  C  C24  1  1.01276005  0.03759049  0.29775494  1
  C  C25  1  0.99710498  0.48884145  0.20090161  1
  C  C26  1  0.49948728  -0.01372728  0.20581238  1
  C  C27  1  0.46064656  0.45948544  0.29154352  1
  C  C28  1  0.00176341  1.00722693  0.49419871  1
  C  C29  1  1.00230720  0.51011358  0.38520897  1
  C  C30  1  0.50168323  0.00747457  0.39193351  1
  C  C31  1  0.50142570  0.50385849  0.49649022  1
  C  C32  1  0.00009358  1.00169127  0.70951009  1
  C  C33  1  1.00086697  0.50363132  0.60144834  1
  C  C34  1  0.50047333  1.00317660  0.60187841  1
  C  C35  1  0.50198289  0.50116798  0.70677514  1
  C  C36  1  0.00221740  1.03672425  0.90833553  1
  C  C37  1  0.00396953  0.49946632  0.81508482  1
  C  C38  1  0.49760543  -0.00091358  0.80611174  1
  C  C39  1  0.53916872  0.50347437  0.90155298  1
