# generated using pymatgen
data_HfZrTaTiVC5
_symmetry_space_group_name_H-M   'P 1'
_cell_length_a   4.49380145
_cell_length_b   4.49482002
_cell_length_c   22.39239397
_cell_angle_alpha   89.99828391
_cell_angle_beta   89.99819698
_cell_angle_gamma   90.00208555
_symmetry_Int_Tables_number   1
_chemical_formula_structural   HfZrTaTiVC5
_chemical_formula_sum   'Hf4 Zr4 Ta4 Ti4 V4 C20'
_cell_volume   452.30013005
_cell_formula_units_Z   4
loop_
 _symmetry_equiv_pos_site_id
 _symmetry_equiv_pos_as_xyz
  1  'x, y, z'
loop_
 _atom_site_type_symbol
 _atom_site_label
 _atom_site_symmetry_multiplicity
 _atom_site_fract_x
 _atom_site_fract_y
 _atom_site_fract_z
 _atom_site_occupancy
  Hf  Hf0  1  0.50015746  0.50057484  0.20309637  1
  Hf  Hf1  1  0.49999330  0.49998493  0.59076457  1
  Hf  Hf2  1  1.00026084  -0.00001790  0.79941272  1
  Hf  Hf3  1  0.50015574  0.49993442  0.79960849  1
  Zr  Zr4  1  0.49980405  0.00007985  0.49296434  1
  Zr  Zr5  1  0.00043761  0.49965685  0.69201382  1
  Zr  Zr6  1  -0.00007925  0.50020272  0.90906825  1
  Zr  Zr7  1  0.50012492  0.99950103  0.90826744  1
  Ta  Ta8  1  0.50017906  0.49894095  1.01260987  1
  Ta  Ta9  1  0.50040169  0.99987069  0.29914131  1
  Ta  Ta10  1  0.99928097  1.00005469  0.39357239  1
  Ta  Ta11  1  0.50050126  0.99975312  0.69296444  1
  Ti  Ti12  1  0.99919954  -0.00011013  1.01444123  1
  Ti  Ti13  1  1.00004907  0.50201565  0.10854909  1
  Ti  Ti14  1  0.99927335  0.00086532  0.20136998  1
  Ti  Ti15  1  0.99999043  0.50011627  0.49063997  1
  V  V16  1  0.49441364  1.00260874  0.10614807  1
  V  V17  1  -0.00229954  0.50080015  0.30133177  1
  V  V18  1  0.49009565  0.49971744  0.39341821  1
  V  V19  1  0.99608642  1.00018369  0.59049501  1
  C  C20  1  1.00381668  -0.00012380  0.10711869  1
  C  C21  1  0.00029202  0.49946651  0.01253908  1
  C  C22  1  0.50156189  0.99895612  1.01254289  1
  C  C23  1  0.49986252  0.49859972  0.10546894  1
  C  C24  1  -0.00003400  0.00024895  0.29798797  1
  C  C25  1  0.00073996  0.50052965  0.20578212  1
  C  C26  1  0.50079241  0.00041197  0.19997473  1
  C  C27  1  0.50386048  0.49960270  0.30330697  1
  C  C28  1  1.00008040  -0.00023590  0.49572835  1
  C  C29  1  0.00541442  0.50026964  0.39333893  1
  C  C30  1  0.49865881  0.00000049  0.39324330  1
  C  C31  1  0.50156579  0.50002587  0.48727779  1
  C  C32  1  1.00087368  0.99965555  0.69067921  1
  C  C33  1  0.00032675  0.49960298  0.58793860  1
  C  C34  1  0.50234474  -0.00010993  0.59615512  1
  C  C35  1  0.50027914  0.49973565  0.69558986  1
  C  C36  1  1.00038012  0.99996663  0.90901875  1
  C  C37  1  0.00016884  0.49995646  0.80083260  1
  C  C38  1  0.50031009  0.99989503  0.79682935  1
  C  C39  1  0.49997275  0.49932288  0.90855803  1
