# generated using pymatgen
data_HfZrScTaTiC5
_symmetry_space_group_name_H-M   'P 1'
_cell_length_a   4.57388223
_cell_length_b   4.57248424
_cell_length_c   22.90629894
_cell_angle_alpha   89.99784665
_cell_angle_beta   89.99977351
_cell_angle_gamma   90.00014229
_symmetry_Int_Tables_number   1
_chemical_formula_structural   HfZrScTaTiC5
_chemical_formula_sum   'Hf4 Zr4 Sc4 Ta4 Ti4 C20'
_cell_volume   479.06243705
_cell_formula_units_Z   4
loop_
 _symmetry_equiv_pos_site_id
 _symmetry_equiv_pos_as_xyz
  1  'x, y, z'
loop_
 _atom_site_type_symbol
 _atom_site_label
 _atom_site_symmetry_multiplicity
 _atom_site_fract_x
 _atom_site_fract_y
 _atom_site_fract_z
 _atom_site_occupancy
  Hf  Hf0  1  1.00009204  0.49991470  0.50019560  1
  Hf  Hf1  1  -0.00001163  0.99985987  0.60613561  1
  Hf  Hf2  1  0.49997781  0.99968935  0.70731259  1
  Hf  Hf3  1  0.49995159  0.49966000  0.80629212  1
  Zr  Zr4  1  0.99998008  0.00011064  0.19180203  1
  Zr  Zr5  1  -0.00005403  0.50024088  0.29611280  1
  Zr  Zr6  1  0.49997519  0.50009450  0.19311477  1
  Zr  Zr7  1  0.50002392  -0.00008260  0.50065196  1
  Sc  Sc8  1  0.50008913  0.50002401  0.99843186  1
  Sc  Sc9  1  0.00011404  0.00011612  0.39721118  1
  Sc  Sc10  1  0.99995474  0.49961411  0.70775984  1
  Sc  Sc11  1  0.49998087  0.49985450  0.60451810  1
  Ta  Ta12  1  0.50002099  0.00000767  0.09253629  1
  Ta  Ta13  1  0.49984306  0.00013094  0.29758571  1
  Ta  Ta14  1  0.50015187  0.50010439  0.39693351  1
  Ta  Ta15  1  0.50002349  0.99987114  0.90352277  1
  Ti  Ti16  1  1.00038379  0.99991423  0.99713754  1
  Ti  Ti17  1  -0.00008761  0.50002326  0.09079840  1
  Ti  Ti18  1  0.99992195  0.99793134  0.80740363  1
  Ti  Ti19  1  0.99985187  0.49924825  0.90420342  1
  C  C20  1  0.99980934  1.00016195  0.09103402  1
  C  C21  1  0.00006901  0.50051655  -0.00126748  1
  C  C22  1  0.49994759  1.00003004  -0.00100330  1
  C  C23  1  0.50005453  0.49998320  0.09563797  1
  C  C24  1  0.00020981  1.00019070  0.29471317  1
  C  C25  1  0.99998540  0.50015447  0.18931189  1
  C  C26  1  0.49999453  0.00001298  0.19496633  1
  C  C27  1  0.50000471  0.49985431  0.29881333  1
  C  C28  1  0.00012227  -0.00004004  0.50293638  1
  C  C29  1  1.00009085  0.50006815  0.39779606  1
  C  C30  1  0.50016350  0.00002864  0.39353615  1
  C  C31  1  0.50002503  0.49998488  0.49386747  1
  C  C32  1  0.99995871  1.00008291  0.71132559  1
  C  C33  1  0.00002499  0.49988323  0.60142242  1
  C  C34  1  0.50001996  -0.00007183  0.60453337  1
  C  C35  1  0.49993900  0.49963018  0.70757785  1
  C  C36  1  0.99987670  1.00110358  0.90324436  1
  C  C37  1  0.99999542  0.50283780  0.81117830  1
  C  C38  1  0.50002418  -0.00004104  0.80780669  1
  C  C39  1  0.49999047  0.49982086  0.90284969  1
