# generated using pymatgen
data_HfZrTaTiMoC5
_symmetry_space_group_name_H-M   'P 1'
_cell_length_a   4.51418867
_cell_length_b   4.51456899
_cell_length_c   22.57741594
_cell_angle_alpha   89.99627976
_cell_angle_beta   90.00239900
_cell_angle_gamma   89.99913469
_symmetry_Int_Tables_number   1
_chemical_formula_structural   HfZrTaTiMoC5
_chemical_formula_sum   'Hf4 Zr4 Ta4 Ti4 Mo4 C20'
_cell_volume   460.11907012
_cell_formula_units_Z   4
loop_
 _symmetry_equiv_pos_site_id
 _symmetry_equiv_pos_as_xyz
  1  'x, y, z'
loop_
 _atom_site_type_symbol
 _atom_site_label
 _atom_site_symmetry_multiplicity
 _atom_site_fract_x
 _atom_site_fract_y
 _atom_site_fract_z
 _atom_site_occupancy
  Hf  Hf0  1  -0.00114231  0.00112632  1.00584418  1
  Hf  Hf1  1  0.49991318  0.50078940  0.40211820  1
  Hf  Hf2  1  -0.00016535  0.49959534  0.69232210  1
  Hf  Hf3  1  0.50045854  0.49981540  0.79737454  1
  Zr  Zr4  1  -0.00053039  0.49889701  0.10515463  1
  Zr  Zr5  1  1.00009055  0.49936172  0.30176326  1
  Zr  Zr6  1  1.00031687  0.99993055  0.79700509  1
  Zr  Zr7  1  0.00014609  0.50003238  0.90243047  1
  Ta  Ta8  1  0.50078790  1.00008919  0.29788961  1
  Ta  Ta9  1  0.49981556  -0.00045470  0.69138431  1
  Ta  Ta10  1  0.49979214  0.49911330  0.59250027  1
  Ta  Ta11  1  0.49996577  1.00012566  0.90530416  1
  Ti  Ti12  1  0.49974499  0.00046242  0.10623181  1
  Ti  Ti13  1  0.49903037  0.49973473  0.20046600  1
  Ti  Ti14  1  0.49918872  0.00133758  0.49833496  1
  Ti  Ti15  1  0.99943816  0.00121253  0.59173670  1
  Mo  Mo16  1  0.49006992  0.50694571  0.00721023  1
  Mo  Mo17  1  0.98104926  0.98539710  0.20137300  1
  Mo  Mo18  1  -0.00655117  0.00926076  0.40856294  1
  Mo  Mo19  1  0.00921690  0.51852053  0.49989582  1
  C  C20  1  1.00280726  0.00016510  0.10761750  1
  C  C21  1  0.01080541  0.50036183  0.00298967  1
  C  C22  1  0.50107563  0.99496489  1.00387615  1
  C  C23  1  0.50040508  0.49882213  0.10268016  1
  C  C24  1  0.00398529  0.00004896  0.30155946  1
  C  C25  1  0.00144867  0.51016953  0.20332490  1
  C  C26  1  0.50758492  0.00190304  0.20158177  1
  C  C27  1  0.50023754  0.50014413  0.29764750  1
  C  C28  1  0.99992923  0.99317455  0.49852983  1
  C  C29  1  0.00016815  0.48839293  0.40499983  1
  C  C30  1  0.50693730  -0.00081281  0.40045663  1
  C  C31  1  0.49550312  0.49984052  0.49907731  1
  C  C32  1  0.99976538  -0.00083043  0.69030026  1
  C  C33  1  0.99908748  0.49725384  0.59274467  1
  C  C34  1  0.50036191  0.99936593  0.59474857  1
  C  C35  1  0.49965503  0.49973071  0.69342843  1
  C  C36  1  0.99920688  0.00019936  0.90221164  1
  C  C37  1  1.00055676  0.49988029  0.79549143  1
  C  C38  1  0.50020850  0.99971375  0.79830246  1
  C  C39  1  0.50097878  0.49914212  0.90384148  1
