# generated using pymatgen
data_HfZrTaTiMnC5
_symmetry_space_group_name_H-M   'P 1'
_cell_length_a   4.51415507
_cell_length_b   4.51698457
_cell_length_c   22.34801718
_cell_angle_alpha   89.80841655
_cell_angle_beta   89.82738354
_cell_angle_gamma   90.03903423
_symmetry_Int_Tables_number   1
_chemical_formula_structural   HfZrTaTiMnC5
_chemical_formula_sum   'Hf4 Zr4 Ta4 Ti4 Mn4 C20'
_cell_volume   455.67958733
_cell_formula_units_Z   4
loop_
 _symmetry_equiv_pos_site_id
 _symmetry_equiv_pos_as_xyz
  1  'x, y, z'
loop_
 _atom_site_type_symbol
 _atom_site_label
 _atom_site_symmetry_multiplicity
 _atom_site_fract_x
 _atom_site_fract_y
 _atom_site_fract_z
 _atom_site_occupancy
  Hf  Hf0  1  0.50125760  1.00403726  0.29359300  1
  Hf  Hf1  1  0.99870570  0.49934352  0.50223001  1
  Hf  Hf2  1  0.49938403  0.50065400  0.39872183  1
  Hf  Hf3  1  0.49677710  0.00206774  0.89906779  1
  Zr  Zr4  1  0.50568980  1.01101743  0.09648822  1
  Zr  Zr5  1  0.99935230  0.00021991  0.39815675  1
  Zr  Zr6  1  -0.00075787  0.99338466  0.60521161  1
  Zr  Zr7  1  0.99728350  0.48334576  0.70745627  1
  Ta  Ta8  1  1.00976535  0.50696530  0.09690686  1
  Ta  Ta9  1  0.00218449  0.50086859  0.29139271  1
  Ta  Ta10  1  0.49869167  0.49494180  0.60601374  1
  Ta  Ta11  1  1.00149179  0.99333003  0.80402216  1
  Ti  Ti12  1  1.00139869  0.01132946  -0.00250366  1
  Ti  Ti13  1  1.00262159  0.99781169  0.19467161  1
  Ti  Ti14  1  0.49901379  0.99986872  0.50217599  1
  Ti  Ti15  1  -0.00687821  0.50186711  0.90270847  1
  Mn  Mn16  1  0.45108286  0.46777135  -0.01067093  1
  Mn  Mn17  1  0.55665816  0.54427841  0.19369972  1
  Mn  Mn18  1  0.53087216  0.93939318  0.70536116  1
  Mn  Mn19  1  0.45859126  0.54686318  0.80228970  1
  C  C20  1  1.00593504  1.00614205  0.09605310  1
  C  C21  1  0.03700092  0.50914980  -0.00188187  1
  C  C22  1  0.50050056  0.04772086  0.99664884  1
  C  C23  1  0.50774156  0.50798767  0.10390500  1
  C  C24  1  0.00296336  0.00398178  0.29192154  1
  C  C25  1  0.97170652  0.49611304  0.19492684  1
  C  C26  1  0.49825956  0.96209159  0.19683086  1
  C  C27  1  0.50180112  0.50207032  0.28988863  1
  C  C28  1  0.99784705  0.99971471  0.50143023  1
  C  C29  1  -0.00068947  0.50039595  0.39384648  1
  C  C30  1  0.49917902  1.00043523  0.40287801  1
  C  C31  1  0.49889490  0.50082322  0.50513499  1
  C  C32  1  -0.04300938  0.98987517  0.70723420  1
  C  C33  1  1.00062921  0.49248423  0.60390940  1
  C  C34  1  0.49842303  0.99236044  0.61165423  1
  C  C35  1  0.49476697  0.52510577  0.70969796  1
  C  C36  1  0.99378133  1.00049955  0.90143953  1
  C  C37  1  0.03427479  0.49154593  0.80809657  1
  C  C38  1  0.49845321  -0.03468408  0.79677588  1
  C  C39  1  0.49580929  0.50493862  0.90293510  1
