# generated using pymatgen
data_HfZrTaTiNiC5
_symmetry_space_group_name_H-M   'P 1'
_cell_length_a   4.48529757
_cell_length_b   4.48529085
_cell_length_c   22.32055874
_cell_angle_alpha   90.01504271
_cell_angle_beta   89.99753097
_cell_angle_gamma   89.99674792
_symmetry_Int_Tables_number   1
_chemical_formula_structural   HfZrTaTiNiC5
_chemical_formula_sum   'Hf4 Zr4 Ta4 Ti4 Ni4 C20'
_cell_volume   449.04195204
_cell_formula_units_Z   4
loop_
 _symmetry_equiv_pos_site_id
 _symmetry_equiv_pos_as_xyz
  1  'x, y, z'
loop_
 _atom_site_type_symbol
 _atom_site_label
 _atom_site_symmetry_multiplicity
 _atom_site_fract_x
 _atom_site_fract_y
 _atom_site_fract_z
 _atom_site_occupancy
  Hf  Hf0  1  1.00016773  1.00017109  0.20677483  1
  Hf  Hf1  1  0.50019022  0.50011320  0.20236656  1
  Hf  Hf2  1  1.00067574  0.99948263  0.59171328  1
  Hf  Hf3  1  0.49999245  0.00045065  0.70105412  1
  Zr  Zr4  1  0.49954737  0.00018107  0.09861297  1
  Zr  Zr5  1  0.49474156  0.49770496  0.39920697  1
  Zr  Zr6  1  0.50004351  0.50015862  0.59578988  1
  Zr  Zr7  1  0.49892489  0.00058657  0.90160123  1
  Ta  Ta8  1  0.99859893  0.99957676  0.99974834  1
  Ta  Ta9  1  0.50175048  0.99852879  0.30769796  1
  Ta  Ta10  1  -0.00204294  0.49736583  0.49079891  1
  Ta  Ta11  1  -0.00001855  0.50030439  0.70337713  1
  Ti  Ti12  1  0.00020089  0.49996254  0.09688920  1
  Ti  Ti13  1  0.99998203  0.00041332  0.80319540  1
  Ti  Ti14  1  0.99897884  0.50030062  0.90381719  1
  Ti  Ti15  1  0.50043818  0.50146244  0.80449817  1
  Ni  Ni16  1  0.50936105  0.50091845  -0.00074720  1
  Ni  Ni17  1  0.98980068  0.51252131  0.30473911  1
  Ni  Ni18  1  -0.00554560  0.99373111  0.39946643  1
  Ni  Ni19  1  0.50887556  0.00383152  0.49446323  1
  C  C20  1  0.00004553  0.99978031  0.09900991  1
  C  C21  1  0.99566029  0.49943428  -0.00120637  1
  C  C22  1  0.49947581  0.99998227  1.00002427  1
  C  C23  1  0.50152673  0.50028580  0.09429628  1
  C  C24  1  0.00160993  0.99576169  0.30843129  1
  C  C25  1  1.00006066  0.50087130  0.19930029  1
  C  C26  1  0.49981895  1.00071920  0.20569197  1
  C  C27  1  0.50798923  0.50061574  0.30011921  1
  C  C28  1  0.99525399  -0.00188688  0.49054421  1
  C  C29  1  0.99645069  0.50630737  0.39557665  1
  C  C30  1  0.50363046  -0.00155608  0.40382420  1
  C  C31  1  0.50012552  0.49301450  0.49836437  1
  C  C32  1  0.99989121  1.00051595  0.70172849  1
  C  C33  1  1.00047699  0.50001184  0.59945112  1
  C  C34  1  0.50057350  0.00014141  0.59246682  1
  C  C35  1  0.49997398  0.50010107  0.70423240  1
  C  C36  1  -0.00043172  -0.00046065  0.90001902  1
  C  C37  1  0.99909533  0.49980262  0.80224460  1
  C  C38  1  0.49870034  0.99894735  0.79968678  1
  C  C39  1  0.50126565  0.50016379  0.90139648  1
