# generated using pymatgen
data_HfZrTiVCoC5
_symmetry_space_group_name_H-M   'P 1'
_cell_length_a   4.47261132
_cell_length_b   4.46043539
_cell_length_c   21.57128988
_cell_angle_alpha   89.87320512
_cell_angle_beta   89.89642511
_cell_angle_gamma   90.02313263
_symmetry_Int_Tables_number   1
_chemical_formula_structural   HfZrTiVCoC5
_chemical_formula_sum   'Hf4 Zr4 Ti4 V4 Co4 C20'
_cell_volume   430.34099309
_cell_formula_units_Z   4
loop_
 _symmetry_equiv_pos_site_id
 _symmetry_equiv_pos_as_xyz
  1  'x, y, z'
loop_
 _atom_site_type_symbol
 _atom_site_label
 _atom_site_symmetry_multiplicity
 _atom_site_fract_x
 _atom_site_fract_y
 _atom_site_fract_z
 _atom_site_occupancy
  Hf  Hf0  1  0.01518702  0.00737042  0.19035423  1
  Hf  Hf1  1  -0.00107262  1.00122357  0.58830655  1
  Hf  Hf2  1  0.49918206  0.00048162  0.70260913  1
  Hf  Hf3  1  0.99930181  0.99965073  0.81111789  1
  Zr  Zr4  1  0.50904436  1.00094559  0.29483232  1
  Zr  Zr5  1  -0.00114841  0.50047947  0.70279015  1
  Zr  Zr6  1  0.50015824  0.50261969  0.58949551  1
  Zr  Zr7  1  0.50096289  0.99453996  0.91520854  1
  Ti  Ti8  1  0.48190612  0.48817974  1.01373958  1
  Ti  Ti9  1  0.00397469  0.99571227  0.39599456  1
  Ti  Ti10  1  0.50671228  0.49968330  0.39512338  1
  Ti  Ti11  1  -0.00484313  0.49229687  0.91556476  1
  V  V12  1  0.01433819  0.50096420  0.29420776  1
  V  V13  1  0.51424191  0.49385591  0.19219694  1
  V  V14  1  0.01731998  0.48468447  0.48591425  1
  V  V15  1  0.49560376  0.50043443  0.81127069  1
  Co  Co16  1  0.02717483  0.95518354  0.01038978  1
  Co  Co17  1  0.97173726  0.51614519  0.10148854  1
  Co  Co18  1  0.54257977  0.96851233  0.09990824  1
  Co  Co19  1  0.48789424  1.01645738  0.48931229  1
  C  C20  1  0.96087795  1.00489122  0.09048564  1
  C  C21  1  -0.01151499  0.52491825  0.01277239  1
  C  C22  1  0.45582741  0.00059739  1.01857916  1
  C  C23  1  0.50893048  0.53166026  0.10544663  1
  C  C24  1  0.00776988  0.00543446  0.29595088  1
  C  C25  1  0.99687876  0.50428431  0.19427160  1
  C  C26  1  0.50979683  0.01338386  0.18697427  1
  C  C27  1  0.48999936  0.50256591  0.29133081  1
  C  C28  1  1.00826226  0.01329411  0.48860784  1
  C  C29  1  1.00292969  0.49901608  0.39161819  1
  C  C30  1  0.50585384  -0.00280301  0.40010689  1
  C  C31  1  0.48519356  0.49070395  0.48786940  1
  C  C32  1  -0.00118934  1.00080671  0.69989471  1
  C  C33  1  0.99872286  0.50318336  0.58764518  1
  C  C34  1  0.49930094  1.00227497  0.59022190  1
  C  C35  1  0.49873144  0.49984409  0.70858171  1
  C  C36  1  0.99951883  -0.00290371  0.91978283  1
  C  C37  1  0.00456315  0.49963987  0.81271676  1
  C  C38  1  0.49965234  -0.00254315  0.80817519  1
  C  C39  1  0.49986542  0.49386981  0.90937903  1
