# generated using pymatgen
data_HfZrTiMnVC5
_symmetry_space_group_name_H-M   'P 1'
_cell_length_a   4.46031808
_cell_length_b   4.46250916
_cell_length_c   21.99219230
_cell_angle_alpha   89.91304008
_cell_angle_beta   89.95018157
_cell_angle_gamma   89.89419759
_symmetry_Int_Tables_number   1
_chemical_formula_structural   HfZrTiMnVC5
_chemical_formula_sum   'Hf4 Zr4 Ti4 Mn4 V4 C20'
_cell_volume   437.73580590
_cell_formula_units_Z   4
loop_
 _symmetry_equiv_pos_site_id
 _symmetry_equiv_pos_as_xyz
  1  'x, y, z'
loop_
 _atom_site_type_symbol
 _atom_site_label
 _atom_site_symmetry_multiplicity
 _atom_site_fract_x
 _atom_site_fract_y
 _atom_site_fract_z
 _atom_site_occupancy
  Hf  Hf0  1  0.50485599  0.49883830  0.20571279  1
  Hf  Hf1  1  0.50747683  1.00692108  0.70212602  1
  Hf  Hf2  1  0.50628959  0.50139800  0.60114228  1
  Hf  Hf3  1  -0.00052192  0.50017692  0.89254956  1
  Zr  Zr4  1  0.00077122  0.99960815  -0.00418936  1
  Zr  Zr5  1  0.00118592  0.49778878  0.09994506  1
  Zr  Zr6  1  1.00142861  1.00072163  0.20626668  1
  Zr  Zr7  1  0.50616750  1.00226059  0.49888515  1
  Ti  Ti8  1  0.50040183  0.50089895  -0.00468997  1
  Ti  Ti9  1  0.49812174  -0.00768555  0.30638145  1
  Ti  Ti10  1  -0.00643580  1.00278393  0.40229780  1
  Ti  Ti11  1  0.00283399  1.00492789  0.79638444  1
  Mn  Mn12  1  0.04577280  0.53730510  0.30931561  1
  Mn  Mn13  1  0.03865122  0.53528056  0.50395313  1
  Mn  Mn14  1  0.42686257  0.46066058  0.40091565  1
  Mn  Mn15  1  0.03806123  0.54122719  0.70677943  1
  V  V16  1  0.50213728  -0.00519145  0.09898742  1
  V  V17  1  1.00129748  0.00310202  0.59856314  1
  V  V18  1  0.49985616  -0.00228091  0.89207940  1
  V  V19  1  0.50581191  0.49929781  0.79800169  1
  C  C20  1  0.99680523  -0.00148830  0.10101304  1
  C  C21  1  0.99960056  0.49966237  -0.00462211  1
  C  C22  1  0.50047070  1.00355852  0.99819944  1
  C  C23  1  0.50052157  0.51013657  0.09764988  1
  C  C24  1  -0.00728509  0.95967988  0.30870547  1
  C  C25  1  1.00372434  0.49878612  0.21479145  1
  C  C26  1  0.50202874  0.00056018  0.20073382  1
  C  C27  1  0.46385627  0.49661813  0.31059140  1
  C  C28  1  0.00105423  0.95406465  0.50281380  1
  C  C29  1  0.01320837  0.49985845  0.40110246  1
  C  C30  1  0.50002273  1.03397386  0.39852025  1
  C  C31  1  0.45913534  0.50001561  0.49213511  1
  C  C32  1  1.00386894  -0.03779853  0.69523419  1
  C  C33  1  1.00372489  0.47727099  0.58924427  1
  C  C34  1  0.51315760  1.00250548  0.60141182  1
  C  C35  1  0.46788412  0.50352196  0.70402076  1
  C  C36  1  1.00214706  1.00024999  0.89135041  1
  C  C37  1  -0.00569733  0.50370706  0.78919960  1
  C  C38  1  0.50406895  1.00938133  0.80248621  1
  C  C39  1  0.49902614  0.50662770  0.89365189  1
