# generated using pymatgen
data_HfMgZrTiVC5
_symmetry_space_group_name_H-M   'P 1'
_cell_length_a   4.48770214
_cell_length_b   4.48696608
_cell_length_c   22.42186784
_cell_angle_alpha   89.99087183
_cell_angle_beta   89.95283647
_cell_angle_gamma   89.99491592
_symmetry_Int_Tables_number   1
_chemical_formula_structural   HfMgZrTiVC5
_chemical_formula_sum   'Hf4 Mg4 Zr4 Ti4 V4 C20'
_cell_volume   451.49032092
_cell_formula_units_Z   4
loop_
 _symmetry_equiv_pos_site_id
 _symmetry_equiv_pos_as_xyz
  1  'x, y, z'
loop_
 _atom_site_type_symbol
 _atom_site_label
 _atom_site_symmetry_multiplicity
 _atom_site_fract_x
 _atom_site_fract_y
 _atom_site_fract_z
 _atom_site_occupancy
  Hf  Hf0  1  0.50184973  1.00024803  0.29482149  1
  Hf  Hf1  1  1.00128195  0.00018612  0.39562412  1
  Hf  Hf2  1  0.00325495  0.50035385  0.69991979  1
  Hf  Hf3  1  0.50088431  0.99938586  0.69853251  1
  Mg  Mg4  1  0.49827789  0.50009786  0.00714411  1
  Mg  Mg5  1  -0.00151074  0.50209231  0.49142431  1
  Mg  Mg6  1  0.50168941  0.50001103  0.39644847  1
  Mg  Mg7  1  0.50168216  0.49891829  0.80454444  1
  Zr  Zr8  1  0.99689495  0.49587885  0.10210334  1
  Zr  Zr9  1  -0.00579994  0.00405410  0.59224076  1
  Zr  Zr10  1  0.00005804  -0.00005354  0.80607805  1
  Zr  Zr11  1  0.49979751  1.00032344  0.90988070  1
  Ti  Ti12  1  0.99621985  -0.00112921  0.00837614  1
  Ti  Ti13  1  0.99927200  0.49961309  0.29411697  1
  Ti  Ti14  1  0.50103823  0.00416587  0.49509120  1
  Ti  Ti15  1  1.00033657  0.50136323  0.90813822  1
  V  V16  1  0.49886487  -0.01419395  0.10491732  1
  V  V17  1  1.01854320  0.99533935  0.19743337  1
  V  V18  1  0.48110963  0.48713578  0.19824707  1
  V  V19  1  0.47342262  0.51547297  0.59175890  1
  C  C20  1  -0.00420005  0.99662948  0.10612540  1
  C  C21  1  -0.00126592  0.49958119  0.00085626  1
  C  C22  1  0.49926957  1.00153198  0.01645061  1
  C  C23  1  0.49888539  0.51282136  0.10885416  1
  C  C24  1  1.00110523  1.00096785  0.28954233  1
  C  C25  1  0.01220026  0.50264127  0.20066280  1
  C  C26  1  0.48949039  0.01273103  0.19505903  1
  C  C27  1  0.50512252  0.50138806  0.28869514  1
  C  C28  1  -0.00316418  1.00193487  0.49341755  1
  C  C29  1  0.00207970  0.50032188  0.38698495  1
  C  C30  1  0.50077812  0.99982964  0.40018904  1
  C  C31  1  0.50405737  0.49691601  0.50719298  1
  C  C32  1  0.00127174  1.00055977  0.70089189  1
  C  C33  1  0.02405484  0.50379484  0.59751616  1
  C  C34  1  0.49479865  0.98235822  0.59399153  1
  C  C35  1  0.50690578  0.49824904  0.68998381  1
  C  C36  1  -0.00014422  1.00026742  0.91205749  1
  C  C37  1  1.00186960  0.49983183  0.80726756  1
  C  C38  1  0.50012316  -0.00119142  0.80122456  1
  C  C39  1  0.50097077  0.49994997  0.90657515  1
