# generated using pymatgen
data_HfZrTiVNiC5
_symmetry_space_group_name_H-M   'P 1'
_cell_length_a   4.45545436
_cell_length_b   4.45216956
_cell_length_c   21.79219249
_cell_angle_alpha   89.94468357
_cell_angle_beta   90.15520766
_cell_angle_gamma   89.97760697
_symmetry_Int_Tables_number   1
_chemical_formula_structural   HfZrTiVNiC5
_chemical_formula_sum   'Hf4 Zr4 Ti4 V4 Ni4 C20'
_cell_volume   432.27766076
_cell_formula_units_Z   4
loop_
 _symmetry_equiv_pos_site_id
 _symmetry_equiv_pos_as_xyz
  1  'x, y, z'
loop_
 _atom_site_type_symbol
 _atom_site_label
 _atom_site_symmetry_multiplicity
 _atom_site_fract_x
 _atom_site_fract_y
 _atom_site_fract_z
 _atom_site_occupancy
  Hf  Hf0  1  0.49578955  1.00148801  0.29091949  1
  Hf  Hf1  1  0.49781543  0.49878857  0.39702963  1
  Hf  Hf2  1  0.99895154  0.50190482  0.70379901  1
  Hf  Hf3  1  0.50095998  0.49856240  0.60200151  1
  Zr  Zr4  1  0.99634687  0.50178693  0.29257438  1
  Zr  Zr5  1  0.50002437  -0.00703020  0.49763202  1
  Zr  Zr6  1  0.99916468  0.49835227  0.90805499  1
  Zr  Zr7  1  0.49970862  0.99819260  0.90578270  1
  Ti  Ti8  1  0.00709837  -0.00425489  0.01151415  1
  Ti  Ti9  1  0.49411972  0.50761056  0.18660161  1
  Ti  Ti10  1  0.00151717  0.99983148  0.60144428  1
  Ti  Ti11  1  0.49995989  0.50147368  0.80288597  1
  V  V12  1  0.52964386  0.02831245  0.09846196  1
  V  V13  1  0.99843878  0.47830590  0.49668486  1
  V  V14  1  0.49197745  1.00579767  0.70566649  1
  V  V15  1  0.99056636  0.99387780  0.80070163  1
  Ni  Ni16  1  0.99262060  0.49714608  0.09964096  1
  Ni  Ni17  1  0.49646867  0.49998960  1.00660501  1
  Ni  Ni18  1  1.00330395  0.99605471  0.19030900  1
  Ni  Ni19  1  0.99856604  1.00516259  0.39931564  1
  C  C20  1  0.98550925  1.00373450  0.10356367  1
  C  C21  1  1.00848234  0.49754323  1.01156394  1
  C  C22  1  0.50320841  -0.01002494  1.00922870  1
  C  C23  1  0.50859415  0.48241270  0.09382090  1
  C  C24  1  -0.00398416  0.00200810  0.29922757  1
  C  C25  1  -0.00467325  0.50544846  0.18784334  1
  C  C26  1  0.48627081  0.00177278  0.18778930  1
  C  C27  1  0.49684854  0.50072586  0.28971429  1
  C  C28  1  1.00052013  0.01675611  0.49910859  1
  C  C29  1  -0.00187759  0.50177606  0.40562419  1
  C  C30  1  0.49694580  0.99898426  0.39516788  1
  C  C31  1  0.50195520  0.49284185  0.49974734  1
  C  C32  1  0.01072205  1.00172796  0.70341785  1
  C  C33  1  0.00169654  0.50558575  0.59577238  1
  C  C34  1  0.50581054  0.99825558  0.60899269  1
  C  C35  1  0.49921603  0.49329079  0.70584887  1
  C  C36  1  -0.00015690  0.99960123  0.89995569  1
  C  C37  1  0.00071178  0.50857958  0.80294876  1
  C  C38  1  0.51289048  -0.00164331  0.79718020  1
  C  C39  1  0.49897222  0.49801822  0.90531046  1
