# generated using pymatgen
data_HfZrScTiVC5
_symmetry_space_group_name_H-M   'P 1'
_cell_length_a   4.52386384
_cell_length_b   4.52064812
_cell_length_c   22.61588519
_cell_angle_alpha   89.97380693
_cell_angle_beta   89.98257382
_cell_angle_gamma   89.99963714
_symmetry_Int_Tables_number   1
_chemical_formula_structural   HfZrScTiVC5
_chemical_formula_sum   'Hf4 Zr4 Sc4 Ti4 V4 C20'
_cell_volume   462.51279712
_cell_formula_units_Z   4
loop_
 _symmetry_equiv_pos_site_id
 _symmetry_equiv_pos_as_xyz
  1  'x, y, z'
loop_
 _atom_site_type_symbol
 _atom_site_label
 _atom_site_symmetry_multiplicity
 _atom_site_fract_x
 _atom_site_fract_y
 _atom_site_fract_z
 _atom_site_occupancy
  Hf  Hf0  1  0.49863852  0.49870515  0.20507658  1
  Hf  Hf1  1  0.00069454  1.00162645  0.60162526  1
  Hf  Hf2  1  0.50032496  0.50142279  0.60104041  1
  Hf  Hf3  1  0.50273264  0.50105268  0.79636363  1
  Zr  Zr4  1  -0.00016793  0.49917996  0.09863787  1
  Zr  Zr5  1  0.50277364  1.00052586  0.49931342  1
  Zr  Zr6  1  0.49752965  0.49764241  0.40151640  1
  Zr  Zr7  1  0.00138888  0.50061608  0.89584750  1
  Sc  Sc8  1  0.50000633  -0.00000272  0.09890966  1
  Sc  Sc9  1  0.50028129  0.50024876  0.99651861  1
  Sc  Sc10  1  0.99885572  0.99841402  0.20464171  1
  Sc  Sc11  1  -0.00717774  0.49661015  0.30545320  1
  Ti  Ti12  1  0.00061461  0.99970065  0.99644065  1
  Ti  Ti13  1  0.00161801  0.50222011  0.70062203  1
  Ti  Ti14  1  0.50273590  1.00174250  0.70215674  1
  Ti  Ti15  1  0.50434757  0.00061983  0.89647252  1
  V  V16  1  0.46931365  0.98831989  0.30490672  1
  V  V17  1  0.99013719  0.99336292  0.40238955  1
  V  V18  1  0.00814559  0.50374011  0.49938391  1
  V  V19  1  0.01017084  0.00475959  0.79493754  1
  C  C20  1  0.99965387  -0.00063575  0.09103346  1
  C  C21  1  1.00015911  0.50061978  0.99629802  1
  C  C22  1  0.49887074  0.00041860  0.98962450  1
  C  C23  1  0.49964572  0.50024377  0.10319886  1
  C  C24  1  0.03242398  0.99819674  0.31313943  1
  C  C25  1  -0.00115354  0.49833542  0.20151962  1
  C  C26  1  0.50351174  0.00078645  0.21348760  1
  C  C27  1  0.49378163  0.51431080  0.30338914  1
  C  C28  1  1.00385774  0.99763900  0.49683528  1
  C  C29  1  -0.00319964  0.50176513  0.40963257  1
  C  C30  1  0.52402451  -0.00018282  0.39645781  1
  C  C31  1  0.48834396  0.50078362  0.50217954  1
  C  C32  1  -0.00419548  0.99714328  0.70401139  1
  C  C33  1  0.99881886  0.50113975  0.59808730  1
  C  C34  1  0.50072428  1.00159136  0.60487635  1
  C  C35  1  0.49911328  0.49999823  0.69871043  1
  C  C36  1  0.99442048  1.00031599  0.89088596  1
  C  C37  1  1.00168978  0.49382478  0.79278021  1
  C  C38  1  0.48907740  1.00075287  0.79692310  1
  C  C39  1  0.50116012  0.50109569  0.89483824  1
