# generated using pymatgen
data_HfZrTiCrWC5
_symmetry_space_group_name_H-M   'P 1'
_cell_length_a   4.45945151
_cell_length_b   4.46136214
_cell_length_c   22.26994738
_cell_angle_alpha   90.02656067
_cell_angle_beta   89.98968421
_cell_angle_gamma   90.00315346
_symmetry_Int_Tables_number   1
_chemical_formula_structural   HfZrTiCrWC5
_chemical_formula_sum   'Hf4 Zr4 Ti4 Cr4 W4 C20'
_cell_volume   443.06562882
_cell_formula_units_Z   4
loop_
 _symmetry_equiv_pos_site_id
 _symmetry_equiv_pos_as_xyz
  1  'x, y, z'
loop_
 _atom_site_type_symbol
 _atom_site_label
 _atom_site_symmetry_multiplicity
 _atom_site_fract_x
 _atom_site_fract_y
 _atom_site_fract_z
 _atom_site_occupancy
  Hf  Hf0  1  -0.00067295  0.00224735  0.40212794  1
  Hf  Hf1  1  0.99877383  0.49711029  0.50127711  1
  Hf  Hf2  1  1.00000888  0.50009410  0.70258599  1
  Hf  Hf3  1  0.99893982  0.49894310  0.89933218  1
  Zr  Zr4  1  0.49969964  0.49835047  0.00196843  1
  Zr  Zr5  1  0.99957393  0.50176580  0.29689434  1
  Zr  Zr6  1  0.49848517  1.00084072  0.29799310  1
  Zr  Zr7  1  0.49926018  -0.00233429  0.89765712  1
  Ti  Ti8  1  1.00372872  0.50237668  0.09900599  1
  Ti  Ti9  1  -0.00038359  -0.00199640  0.60346308  1
  Ti  Ti10  1  0.50045058  0.99871542  0.70242431  1
  Ti  Ti11  1  1.00225169  1.00183161  0.79762376  1
  Cr  Cr12  1  1.01006533  0.98873194  0.00409905  1
  Cr  Cr13  1  0.52197918  0.51506713  0.18927672  1
  Cr  Cr14  1  0.49119990  0.51628140  0.40229602  1
  Cr  Cr15  1  0.48726364  0.48652936  0.79751135  1
  W  W16  1  0.51532130  0.01191069  0.10114450  1
  W  W17  1  0.98938598  0.01400135  0.19088189  1
  W  W18  1  0.49464805  -0.02123261  0.50395798  1
  W  W19  1  0.50495084  0.48525532  0.60364579  1
  C  C20  1  0.99940649  1.00072673  0.09474165  1
  C  C21  1  0.99961919  0.51534896  1.00371087  1
  C  C22  1  0.48047540  0.99772904  1.00596763  1
  C  C23  1  0.49899874  0.49865316  0.10446378  1
  C  C24  1  -0.00103372  0.00120352  0.29076671  1
  C  C25  1  -0.01213469  0.49345423  0.19333399  1
  C  C26  1  0.49777883  0.97929463  0.19431178  1
  C  C27  1  0.50038201  0.50100317  0.31020674  1
  C  C28  1  0.00161282  -0.00019737  0.50547492  1
  C  C29  1  0.01148393  0.50241963  0.40077050  1
  C  C30  1  0.50050789  0.98906058  0.40731864  1
  C  C31  1  0.49959979  0.50376225  0.49844395  1
  C  C32  1  -0.00028895  0.99968872  0.70050187  1
  C  C33  1  0.99533797  0.50079812  0.60121705  1
  C  C34  1  0.49927488  0.00885546  0.60098950  1
  C  C35  1  0.49941644  0.50028587  0.70038423  1
  C  C36  1  0.99863742  0.99916342  0.90601995  1
  C  C37  1  1.01508221  0.50190940  0.80019824  1
  C  C38  1  0.50136280  0.01451133  0.79520418  1
  C  C39  1  0.49948833  0.49772621  0.89086987  1
