# generated using pymatgen
data_HfZrTiCoWC5
_symmetry_space_group_name_H-M   'P 1'
_cell_length_a   4.49440192
_cell_length_b   4.49858953
_cell_length_c   22.03600580
_cell_angle_alpha   90.17582388
_cell_angle_beta   90.04955972
_cell_angle_gamma   89.99709433
_symmetry_Int_Tables_number   1
_chemical_formula_structural   HfZrTiCoWC5
_chemical_formula_sum   'Hf4 Zr4 Ti4 Co4 W4 C20'
_cell_volume   445.53204451
_cell_formula_units_Z   4
loop_
 _symmetry_equiv_pos_site_id
 _symmetry_equiv_pos_as_xyz
  1  'x, y, z'
loop_
 _atom_site_type_symbol
 _atom_site_label
 _atom_site_symmetry_multiplicity
 _atom_site_fract_x
 _atom_site_fract_y
 _atom_site_fract_z
 _atom_site_occupancy
  Hf  Hf0  1  0.00054375  0.49261895  0.49360125  1
  Hf  Hf1  1  0.50195668  -0.00413386  0.70893294  1
  Hf  Hf2  1  0.50056077  0.49696133  0.60130456  1
  Hf  Hf3  1  1.00181739  0.99907336  0.81104989  1
  Zr  Zr4  1  0.98751900  0.50551801  0.10079939  1
  Zr  Zr5  1  0.50294874  -0.00329161  0.49226905  1
  Zr  Zr6  1  0.49717311  0.49969357  0.38724019  1
  Zr  Zr7  1  0.00198419  0.49562130  0.70799785  1
  Ti  Ti8  1  0.50693128  0.51070057  0.00286231  1
  Ti  Ti9  1  0.99298766  0.50993832  0.29038615  1
  Ti  Ti10  1  0.48680750  0.99771413  0.28720744  1
  Ti  Ti11  1  0.00120164  -0.00418011  0.60024573  1
  Co  Co12  1  0.45417703  0.95914770  0.10252605  1
  Co  Co13  1  0.94828951  0.04014371  0.19677805  1
  Co  Co14  1  0.97060146  0.02787421  0.37309354  1
  Co  Co15  1  0.54003497  0.45907983  0.81118593  1
  W  W16  1  0.03814526  0.01407767  1.00550490  1
  W  W17  1  0.48410777  0.46848429  0.19422840  1
  W  W18  1  0.03636115  0.51087861  0.90608138  1
  W  W19  1  0.50166775  0.99234991  0.91043700  1
  C  C20  1  0.03459073  1.00477795  0.10556816  1
  C  C21  1  -0.00018687  0.49971818  0.99893117  1
  C  C22  1  0.50997101  0.01781827  1.01090413  1
  C  C23  1  0.49097751  0.54546123  0.09893337  1
  C  C24  1  0.98921563  0.00330089  0.28891463  1
  C  C25  1  -0.00704180  0.45794853  0.19897579  1
  C  C26  1  0.53184315  0.99158130  0.18991924  1
  C  C27  1  0.48838217  0.50927946  0.28645940  1
  C  C28  1  1.00193844  0.99439589  0.50268043  1
  C  C29  1  0.99792019  0.46695804  0.38728095  1
  C  C30  1  0.52583340  0.99896268  0.38407102  1
  C  C31  1  0.50021083  0.49748719  0.49580299  1
  C  C32  1  0.00308290  0.99454190  0.70439636  1
  C  C33  1  0.00036525  0.49500190  0.60155843  1
  C  C34  1  0.50191970  -0.00307496  0.60336218  1
  C  C35  1  0.50251938  0.49657255  0.71555861  1
  C  C36  1  0.00303737  0.00133521  0.91161105  1
  C  C37  1  0.96102064  0.50074795  0.81371753  1
  C  C38  1  0.50004199  0.04347017  0.81551870  1
  C  C39  1  0.50818070  0.51420298  0.90236407  1
