# generated using pymatgen
data_HfZrTiMnWC5
_symmetry_space_group_name_H-M   'P 1'
_cell_length_a   4.51156768
_cell_length_b   4.48990961
_cell_length_c   22.10266468
_cell_angle_alpha   90.01195352
_cell_angle_beta   90.15587480
_cell_angle_gamma   90.11854668
_symmetry_Int_Tables_number   1
_chemical_formula_structural   HfZrTiMnWC5
_chemical_formula_sum   'Hf4 Zr4 Ti4 Mn4 W4 C20'
_cell_volume   447.72068886
_cell_formula_units_Z   4
loop_
 _symmetry_equiv_pos_site_id
 _symmetry_equiv_pos_as_xyz
  1  'x, y, z'
loop_
 _atom_site_type_symbol
 _atom_site_label
 _atom_site_symmetry_multiplicity
 _atom_site_fract_x
 _atom_site_fract_y
 _atom_site_fract_z
 _atom_site_occupancy
  Hf  Hf0  1  0.99360699  0.50465052  0.09761063  1
  Hf  Hf1  1  1.00535034  0.00094798  0.59550780  1
  Hf  Hf2  1  0.99584766  0.99335724  0.79553685  1
  Hf  Hf3  1  0.00041435  0.49962579  0.89703037  1
  Zr  Zr4  1  0.49805147  0.00782388  0.09926442  1
  Zr  Zr5  1  0.99882793  0.50935001  0.30756724  1
  Zr  Zr6  1  0.49740092  0.50401896  0.20490907  1
  Zr  Zr7  1  0.48743627  -0.00190375  0.69472161  1
  Ti  Ti8  1  -0.00177905  1.00548299  0.20603587  1
  Ti  Ti9  1  0.49692779  0.00325464  0.30867323  1
  Ti  Ti10  1  0.01319616  0.50108725  0.50068062  1
  Ti  Ti11  1  0.50343895  0.99638688  0.49846364  1
  Mn  Mn12  1  0.45856343  0.54316550  0.99843977  1
  Mn  Mn13  1  0.95222671  0.04671595  0.40538330  1
  Mn  Mn14  1  -0.06388669  0.52899447  0.69483243  1
  Mn  Mn15  1  0.55025842  0.53271118  0.59142564  1
  W  W16  1  1.00905365  1.00356578  -0.00370371  1
  W  W17  1  0.49955939  0.48894653  0.40777227  1
  W  W18  1  0.50107802  0.02153772  0.90094939  1
  W  W19  1  0.49379743  0.49688520  0.79540969  1
  C  C20  1  0.99687377  1.00525420  0.09839309  1
  C  C21  1  0.03941951  0.48988716  0.99655657  1
  C  C22  1  0.51675104  -0.03748808  -0.00545121  1
  C  C23  1  0.49471002  0.50790284  0.09075159  1
  C  C24  1  1.00270446  1.00746805  0.31037312  1
  C  C25  1  0.99782415  0.50251704  0.20162072  1
  C  C26  1  0.50247698  0.00327817  0.20895192  1
  C  C27  1  0.49826603  0.50552811  0.31126816  1
  C  C28  1  0.01032183  0.99498927  0.49326910  1
  C  C29  1  0.00998424  0.46602499  0.40843220  1
  C  C30  1  0.53829047  -0.00806755  0.40364435  1
  C  C31  1  0.50869542  0.49728353  0.50572292  1
  C  C32  1  -0.00905167  0.95773043  0.69595094  1
  C  C33  1  0.96468368  0.49522491  0.60229895  1
  C  C34  1  0.50244655  -0.03644308  0.59343422  1
  C  C35  1  0.52738794  0.49491189  0.69845404  1
  C  C36  1  0.00237202  -0.00194699  0.90022263  1
  C  C37  1  1.00314961  0.49130437  0.78791027  1
  C  C38  1  0.49609496  0.98523143  0.80328725  1
  C  C39  1  0.50359816  0.49244470  0.89918053  1
