# generated using pymatgen
data_HfMgZrTiWC5
_symmetry_space_group_name_H-M   'P 1'
_cell_length_a   4.51884585
_cell_length_b   4.51962399
_cell_length_c   22.65374160
_cell_angle_alpha   90.00349034
_cell_angle_beta   89.99163317
_cell_angle_gamma   90.00508687
_symmetry_Int_Tables_number   1
_chemical_formula_structural   HfMgZrTiWC5
_chemical_formula_sum   'Hf4 Mg4 Zr4 Ti4 W4 C20'
_cell_volume   462.66832355
_cell_formula_units_Z   4
loop_
 _symmetry_equiv_pos_site_id
 _symmetry_equiv_pos_as_xyz
  1  'x, y, z'
loop_
 _atom_site_type_symbol
 _atom_site_label
 _atom_site_symmetry_multiplicity
 _atom_site_fract_x
 _atom_site_fract_y
 _atom_site_fract_z
 _atom_site_occupancy
  Hf  Hf0  1  0.00018890  -0.00063796  0.40001010  1
  Hf  Hf1  1  0.49975885  0.99942640  0.49796603  1
  Hf  Hf2  1  -0.00051209  -0.00060459  0.59902308  1
  Hf  Hf3  1  1.00079678  0.49950409  0.70293546  1
  Mg  Mg4  1  1.00131425  0.51026061  0.09816337  1
  Mg  Mg5  1  0.49150300  -0.00203284  0.09859994  1
  Mg  Mg6  1  0.49997131  0.49948809  0.39946701  1
  Mg  Mg7  1  -0.00042889  0.50140636  0.90576282  1
  Zr  Zr8  1  0.00043787  0.49958727  0.29651685  1
  Zr  Zr9  1  0.49973372  -0.00099312  0.29555991  1
  Zr  Zr10  1  0.49990514  0.99901092  0.70290513  1
  Zr  Zr11  1  0.49888813  0.99889158  0.90450649  1
  Ti  Ti12  1  0.50162518  0.49709931  1.00832111  1
  Ti  Ti13  1  0.50143818  0.49792231  0.18925512  1
  Ti  Ti14  1  0.99793993  0.49941152  0.49847218  1
  Ti  Ti15  1  0.49899438  0.49825939  0.59815946  1
  W  W16  1  0.98728347  0.01520664  0.00702135  1
  W  W17  1  0.98429352  0.01701532  0.18897399  1
  W  W18  1  0.01299516  0.01997361  0.80916157  1
  W  W19  1  0.51663340  0.51263072  0.80787356  1
  C  C20  1  -0.00469258  1.00570942  0.09727249  1
  C  C21  1  0.00097842  0.48522170  0.00130896  1
  C  C22  1  0.51071602  0.99506130  0.00226848  1
  C  C23  1  0.50058259  0.49843815  0.09682104  1
  C  C24  1  0.00101802  0.99831180  0.29159284  1
  C  C25  1  0.00294346  0.48784890  0.19499353  1
  C  C26  1  0.51328385  -0.00374068  0.19420126  1
  C  C27  1  0.50001256  0.49935920  0.28928942  1
  C  C28  1  0.00020240  0.99925757  0.50000841  1
  C  C29  1  0.00001049  0.49923884  0.40537181  1
  C  C30  1  0.50025974  -0.00059798  0.39831376  1
  C  C31  1  0.50161257  0.49939539  0.50620892  1
  C  C32  1  -0.00144492  -0.00202512  0.70722686  1
  C  C33  1  1.00007422  0.49966913  0.59961521  1
  C  C34  1  0.49950996  0.00002794  0.60078783  1
  C  C35  1  0.49905066  0.49786294  0.70329698  1
  C  C36  1  0.99873269  0.99739698  0.90105422  1
  C  C37  1  -0.00648995  0.49171522  0.80247373  1
  C  C38  1  0.49227030  0.99320395  0.80279136  1
  C  C39  1  0.49839530  0.49809181  0.89664805  1
