# generated using pymatgen
data_HfZrTiMoWC5
_symmetry_space_group_name_H-M   'P 1'
_cell_length_a   4.49987324
_cell_length_b   4.50199983
_cell_length_c   22.44762139
_cell_angle_alpha   90.04078187
_cell_angle_beta   89.99413935
_cell_angle_gamma   90.01086669
_symmetry_Int_Tables_number   1
_chemical_formula_structural   HfZrTiMoWC5
_chemical_formula_sum   'Hf4 Zr4 Ti4 Mo4 W4 C20'
_cell_volume   454.75340797
_cell_formula_units_Z   4
loop_
 _symmetry_equiv_pos_site_id
 _symmetry_equiv_pos_as_xyz
  1  'x, y, z'
loop_
 _atom_site_type_symbol
 _atom_site_label
 _atom_site_symmetry_multiplicity
 _atom_site_fract_x
 _atom_site_fract_y
 _atom_site_fract_z
 _atom_site_occupancy
  Hf  Hf0  1  0.49956156  -0.00025897  0.50112650  1
  Hf  Hf1  1  0.49924275  0.49850973  0.39644050  1
  Hf  Hf2  1  0.49645585  0.00274292  0.70193500  1
  Hf  Hf3  1  0.49981379  0.99949680  0.89933311  1
  Zr  Zr4  1  0.50176373  0.50162713  0.00302338  1
  Zr  Zr5  1  0.50000282  0.99617313  0.29478928  1
  Zr  Zr6  1  0.99946687  0.50106355  0.50032306  1
  Zr  Zr7  1  0.00029970  0.49885269  0.89873458  1
  Ti  Ti8  1  -0.00245302  0.00208257  1.00423395  1
  Ti  Ti9  1  1.00159912  0.49839835  0.29575042  1
  Ti  Ti10  1  0.99985926  1.00043829  0.79802816  1
  Ti  Ti11  1  0.49930642  0.50030370  0.79789745  1
  Mo  Mo12  1  0.00525458  0.01599972  0.19313761  1
  Mo  Mo13  1  0.52560887  0.48566739  0.19695142  1
  Mo  Mo14  1  0.99201791  1.00352739  0.39340984  1
  Mo  Mo15  1  0.48419340  0.50967760  0.60484768  1
  W  W16  1  0.01702924  0.51278138  0.10665224  1
  W  W17  1  0.47156682  0.01723575  0.10293023  1
  W  W18  1  0.98503768  0.01753696  0.60368553  1
  W  W19  1  -0.01279270  0.51305774  0.70066959  1
  C  C20  1  -0.00815864  0.99669120  0.10013428  1
  C  C21  1  1.00078717  0.49541558  0.00731159  1
  C  C22  1  0.50261854  0.99964755  1.00615983  1
  C  C23  1  0.49683343  0.50202253  0.10423583  1
  C  C24  1  0.00012448  -0.00364180  0.29868945  1
  C  C25  1  0.99714471  0.49462339  0.20008236  1
  C  C26  1  0.50162984  -0.01094978  0.19437817  1
  C  C27  1  0.49610914  0.49701211  0.29373009  1
  C  C28  1  0.00115325  0.99981860  0.50391099  1
  C  C29  1  0.00079513  0.49432816  0.39432484  1
  C  C30  1  0.50747020  -0.00222502  0.39960137  1
  C  C31  1  0.50019239  0.49888164  0.50380938  1
  C  C32  1  -0.00027218  0.99497533  0.69983667  1
  C  C33  1  1.01854698  0.49038118  0.60504541  1
  C  C34  1  0.51192075  -0.01247628  0.60176514  1
  C  C35  1  0.50566558  0.50024026  0.70009931  1
  C  C36  1  -0.00001707  -0.00098892  0.90225236  1
  C  C37  1  1.00445403  0.49413557  0.79406195  1
  C  C38  1  0.50142299  0.99679032  0.80038788  1
  C  C39  1  0.50030640  0.49925675  0.89562800  1
