# generated using pymatgen
data_HfZrTiNbWC5
_symmetry_space_group_name_H-M   'P 1'
_cell_length_a   4.52663769
_cell_length_b   4.52640358
_cell_length_c   22.62662389
_cell_angle_alpha   89.98745738
_cell_angle_beta   90.01131303
_cell_angle_gamma   89.99970206
_symmetry_Int_Tables_number   1
_chemical_formula_structural   HfZrTiNbWC5
_chemical_formula_sum   'Hf4 Zr4 Ti4 Nb4 W4 C20'
_cell_volume   463.60567973
_cell_formula_units_Z   4
loop_
 _symmetry_equiv_pos_site_id
 _symmetry_equiv_pos_as_xyz
  1  'x, y, z'
loop_
 _atom_site_type_symbol
 _atom_site_label
 _atom_site_symmetry_multiplicity
 _atom_site_fract_x
 _atom_site_fract_y
 _atom_site_fract_z
 _atom_site_occupancy
  Hf  Hf0  1  0.49868166  0.50430983  0.19250141  1
  Hf  Hf1  1  0.50012975  0.00001214  0.49866513  1
  Hf  Hf2  1  0.99991083  0.00029473  0.60045985  1
  Hf  Hf3  1  0.50012730  0.50069884  0.81094402  1
  Zr  Zr4  1  0.50005095  0.00035099  0.29326061  1
  Zr  Zr5  1  0.50023572  0.49989497  0.39685121  1
  Zr  Zr6  1  0.99967985  0.50022843  0.70592305  1
  Zr  Zr7  1  0.49970612  0.00009164  0.70747022  1
  Ti  Ti8  1  1.00003712  -0.00196469  -0.00071055  1
  Ti  Ti9  1  0.00028681  0.50111423  0.49867883  1
  Ti  Ti10  1  0.99902846  0.99799790  0.81323867  1
  Ti  Ti11  1  0.49875715  -0.00305126  0.90719424  1
  Nb  Nb12  1  -0.00424200  0.49627746  0.09467216  1
  Nb  Nb13  1  -0.00033226  0.50161144  0.29364917  1
  Nb  Nb14  1  0.00008091  0.99991698  0.39747926  1
  Nb  Nb15  1  0.49958301  0.50017381  0.59937080  1
  W  W16  1  0.52290195  0.01865568  0.09192711  1
  W  W17  1  0.51628011  0.48578985  1.00019568  1
  W  W18  1  1.00736857  0.01402510  0.18980655  1
  W  W19  1  0.01053036  0.48769329  0.90826702  1
  C  C20  1  -0.00481324  0.99525774  0.09616228  1
  C  C21  1  0.99658096  0.50258151  0.00017272  1
  C  C22  1  0.49591915  1.00009143  1.00082613  1
  C  C23  1  0.49319854  0.49976545  0.09311999  1
  C  C24  1  0.99920332  -0.00384054  0.29106575  1
  C  C25  1  -0.00298948  0.49351391  0.19449091  1
  C  C26  1  0.48734127  1.00008179  0.18809366  1
  C  C27  1  0.49995475  0.49971796  0.29303879  1
  C  C28  1  1.00002578  0.99854498  0.49611557  1
  C  C29  1  0.00006302  0.49835603  0.39780261  1
  C  C30  1  0.49981761  -0.00034189  0.39690691  1
  C  C31  1  0.50017986  0.49985771  0.50147792  1
  C  C32  1  -0.00027580  0.00025889  0.70879680  1
  C  C33  1  0.00006295  0.50000470  0.59740309  1
  C  C34  1  0.49993954  0.00014244  0.60116043  1
  C  C35  1  0.49969672  0.50005115  0.70314902  1
  C  C36  1  -0.00162092  0.00181885  0.90643235  1
  C  C37  1  0.99914107  0.50428300  0.81211011  1
  C  C38  1  0.49923972  0.00152946  0.81232524  1
  C  C39  1  0.49459714  0.50153232  0.90923629  1
