# generated using pymatgen
data_HfZrTiNiWC5
_symmetry_space_group_name_H-M   'P 1'
_cell_length_a   4.49309332
_cell_length_b   4.48684781
_cell_length_c   22.12036848
_cell_angle_alpha   90.03135737
_cell_angle_beta   90.02984596
_cell_angle_gamma   89.98864684
_symmetry_Int_Tables_number   1
_chemical_formula_structural   HfZrTiNiWC5
_chemical_formula_sum   'Hf4 Zr4 Ti4 Ni4 W4 C20'
_cell_volume   445.94264195
_cell_formula_units_Z   4
loop_
 _symmetry_equiv_pos_site_id
 _symmetry_equiv_pos_as_xyz
  1  'x, y, z'
loop_
 _atom_site_type_symbol
 _atom_site_label
 _atom_site_symmetry_multiplicity
 _atom_site_fract_x
 _atom_site_fract_y
 _atom_site_fract_z
 _atom_site_occupancy
  Hf  Hf0  1  -0.00235419  -0.00014134  0.39592127  1
  Hf  Hf1  1  0.49722303  0.49979758  0.39770642  1
  Hf  Hf2  1  0.99585823  1.00038211  0.60655780  1
  Hf  Hf3  1  1.00620077  0.00042939  0.80183158  1
  Zr  Zr4  1  0.49685473  0.00047645  0.28990830  1
  Zr  Zr5  1  0.48997857  0.50211700  0.18727850  1
  Zr  Zr6  1  0.99614274  0.50051093  0.50384756  1
  Zr  Zr7  1  0.50853829  0.00618126  0.90620543  1
  Ti  Ti8  1  0.50137661  0.00322471  0.09628770  1
  Ti  Ti9  1  0.99532384  0.50074991  0.28738631  1
  Ti  Ti10  1  0.49631699  0.00030453  0.50339811  1
  Ti  Ti11  1  0.49687919  0.50649568  0.60807954  1
  Ni  Ni12  1  0.97534168  0.47526319  0.09729310  1
  Ni  Ni13  1  0.53428569  0.51387948  1.00122629  1
  Ni  Ni14  1  -0.00533677  1.01022129  0.19135524  1
  Ni  Ni15  1  1.02311505  0.49044341  0.70308123  1
  W  W16  1  0.00170420  -0.03603336  0.01060018  1
  W  W17  1  0.48551519  1.03212678  0.70196207  1
  W  W18  1  0.02214836  0.50639510  0.91170655  1
  W  W19  1  0.52194725  0.50722438  0.79703743  1
  C  C20  1  1.00127484  1.00603197  0.10016714  1
  C  C21  1  0.99232523  0.48857339  1.00298416  1
  C  C22  1  0.50313342  0.98225403  1.00382263  1
  C  C23  1  0.50789552  0.50001203  0.08794235  1
  C  C24  1  -0.00273258  -0.00130170  0.28852615  1
  C  C25  1  0.99081179  0.49043834  0.19228263  1
  C  C26  1  0.49722104  0.00080325  0.18972016  1
  C  C27  1  0.49621764  0.50015743  0.29527961  1
  C  C28  1  -0.00225349  1.00062897  0.50072534  1
  C  C29  1  -0.00271287  0.49959749  0.39319457  1
  C  C30  1  0.49781340  -0.00037727  0.40313003  1
  C  C31  1  0.49615032  0.50112292  0.50651418  1
  C  C32  1  0.00786886  1.00947825  0.70457156  1
  C  C33  1  -0.00237580  0.50030230  0.60953673  1
  C  C34  1  0.49814805  0.99909842  0.60489972  1
  C  C35  1  0.49021474  0.50635052  0.70520819  1
  C  C36  1  1.00718747  1.00465330  0.90766587  1
  C  C37  1  -0.00754205  0.49904028  0.80476947  1
  C  C38  1  0.50611589  -0.01072738  0.79846041  1
  C  C39  1  0.49334066  0.50499769  0.90278892  1
