# generated using pymatgen
data_HfZrScTiWC5
_symmetry_space_group_name_H-M   'P 1'
_cell_length_a   4.55245131
_cell_length_b   4.55170635
_cell_length_c   22.75591959
_cell_angle_alpha   89.98939433
_cell_angle_beta   89.99871809
_cell_angle_gamma   90.00040158
_symmetry_Int_Tables_number   1
_chemical_formula_structural   HfZrScTiWC5
_chemical_formula_sum   'Hf4 Zr4 Sc4 Ti4 W4 C20'
_cell_volume   471.53499426
_cell_formula_units_Z   4
loop_
 _symmetry_equiv_pos_site_id
 _symmetry_equiv_pos_as_xyz
  1  'x, y, z'
loop_
 _atom_site_type_symbol
 _atom_site_label
 _atom_site_symmetry_multiplicity
 _atom_site_fract_x
 _atom_site_fract_y
 _atom_site_fract_z
 _atom_site_occupancy
  Hf  Hf0  1  0.49878181  0.50020463  0.00460577  1
  Hf  Hf1  1  0.49953863  -0.00211375  0.29948688  1
  Hf  Hf2  1  0.99986066  0.99925325  0.79900047  1
  Hf  Hf3  1  -0.00031520  0.50026766  0.90371930  1
  Zr  Zr4  1  0.49950125  0.49860317  0.19994067  1
  Zr  Zr5  1  0.99616065  0.00101357  0.39986749  1
  Zr  Zr6  1  0.49956578  0.50088028  0.59636318  1
  Zr  Zr7  1  0.49984039  0.49952331  0.79877289  1
  Sc  Sc8  1  0.00069708  -0.00255722  0.19845039  1
  Sc  Sc9  1  0.00072557  -0.00034538  0.59620120  1
  Sc  Sc10  1  0.49997851  1.00037519  0.69694617  1
  Sc  Sc11  1  0.49987317  1.00051820  0.90516033  1
  Ti  Ti12  1  0.99956522  0.99898484  0.00517797  1
  Ti  Ti13  1  0.49933826  0.99681884  0.10164341  1
  Ti  Ti14  1  -0.00133759  0.50215350  0.49975489  1
  Ti  Ti15  1  -0.00044914  0.49355339  0.69488575  1
  W  W16  1  0.98934051  0.48501963  0.10005015  1
  W  W17  1  0.99192066  0.48630891  0.30074690  1
  W  W18  1  0.51548835  0.01533831  0.49803363  1
  W  W19  1  0.48094855  0.50934229  0.40210751  1
  C  C20  1  1.00233436  1.00866119  0.09838550  1
  C  C21  1  0.00048771  0.50336046  1.00793517  1
  C  C22  1  0.49979917  1.00100804  0.00859344  1
  C  C23  1  0.50966081  0.50072869  0.10240109  1
  C  C24  1  0.00202907  0.01293746  0.29923277  1
  C  C25  1  1.00193603  0.50122637  0.20268243  1
  C  C26  1  0.50029362  -0.00128870  0.19696654  1
  C  C27  1  0.51348990  0.49761465  0.30632111  1
  C  C28  1  0.99000246  0.00066411  0.49711344  1
  C  C29  1  1.00887080  0.50106263  0.39694428  1
  C  C30  1  0.49539336  0.98554312  0.40071085  1
  C  C31  1  0.50591849  0.49318328  0.49247267  1
  C  C32  1  1.00007272  0.00896595  0.69902408  1
  C  C33  1  1.00013414  0.49945549  0.59592271  1
  C  C34  1  0.49807078  0.99880936  0.58801110  1
  C  C35  1  0.50130848  0.50110635  0.69644099  1
  C  C36  1  1.00006979  1.00085508  0.90757055  1
  C  C37  1  -0.00007838  0.49992213  0.79774171  1
  C  C38  1  0.49979359  0.99977536  0.80074578  1
  C  C39  1  0.50014870  0.50028318  0.90374943  1
