# generated using pymatgen
data_HfZrTaTiWC5
_symmetry_space_group_name_H-M   'P 1'
_cell_length_a   4.52025544
_cell_length_b   4.52120298
_cell_length_c   22.59850786
_cell_angle_alpha   90.00832428
_cell_angle_beta   89.99804933
_cell_angle_gamma   89.99853531
_symmetry_Int_Tables_number   1
_chemical_formula_structural   HfZrTaTiWC5
_chemical_formula_sum   'Hf4 Zr4 Ta4 Ti4 W4 C20'
_cell_volume   461.84552723
_cell_formula_units_Z   4
loop_
 _symmetry_equiv_pos_site_id
 _symmetry_equiv_pos_as_xyz
  1  'x, y, z'
loop_
 _atom_site_type_symbol
 _atom_site_label
 _atom_site_symmetry_multiplicity
 _atom_site_fract_x
 _atom_site_fract_y
 _atom_site_fract_z
 _atom_site_occupancy
  Hf  Hf0  1  0.50046493  0.50018979  1.00385782  1
  Hf  Hf1  1  0.99926292  -0.00029499  0.39727254  1
  Hf  Hf2  1  0.00100570  0.99985925  0.79660718  1
  Hf  Hf3  1  0.50012552  0.99986804  0.89941072  1
  Zr  Zr4  1  0.49993939  0.99806148  0.10528448  1
  Zr  Zr5  1  1.00059347  1.00031267  0.59826552  1
  Zr  Zr6  1  0.49990540  0.50094589  0.59823503  1
  Zr  Zr7  1  0.99987451  0.50007425  0.89885428  1
  Ta  Ta8  1  1.00005820  0.00078789  1.00416289  1
  Ta  Ta9  1  0.49759510  1.00432934  0.30146739  1
  Ta  Ta10  1  0.50173880  0.50240589  0.20499010  1
  Ta  Ta11  1  0.99957862  0.49975112  0.49501173  1
  Ti  Ti12  1  0.49953656  0.00009371  0.49447040  1
  Ti  Ti13  1  0.50173286  0.50101912  0.39890857  1
  Ti  Ti14  1  0.99993451  0.50166108  0.70008140  1
  Ti  Ti15  1  0.49970169  0.50176547  0.79487863  1
  W  W16  1  1.00812286  0.48652479  0.10727346  1
  W  W17  1  0.98628427  0.97849241  0.20340846  1
  W  W18  1  0.01659038  0.48970134  0.29955299  1
  W  W19  1  0.50923222  0.01303060  0.70069193  1
  C  C20  1  0.99888851  1.00965582  0.10475334  1
  C  C21  1  -0.00031367  0.50245945  1.00747196  1
  C  C22  1  0.50027655  1.00017118  1.00181601  1
  C  C23  1  0.49217154  0.49990644  0.10671543  1
  C  C24  1  1.00027092  0.00843159  0.29616507  1
  C  C25  1  -0.00159330  0.50526428  0.20251312  1
  C  C26  1  0.50378137  1.00177922  0.20555376  1
  C  C27  1  0.49765153  0.50302761  0.30111700  1
  C  C28  1  0.99936666  1.00049089  0.49576525  1
  C  C29  1  0.99778480  0.50021864  0.39605802  1
  C  C30  1  0.49924869  1.00075842  0.39893170  1
  C  C31  1  0.49885812  0.49980314  0.49312502  1
  C  C32  1  -0.00813950  -0.00218670  0.69849285  1
  C  C33  1  0.99954061  0.50027660  0.59670166  1
  C  C34  1  0.49900032  -0.00013668  0.59914924  1
  C  C35  1  0.49808503  0.49143861  0.70143017  1
  C  C36  1  0.99990343  1.00017984  0.90440848  1
  C  C37  1  1.00067701  0.49960738  0.79491220  1
  C  C38  1  0.49972470  0.99716258  0.79501426  1
  C  C39  1  0.49982257  0.49968997  0.89685584  1
