# generated using pymatgen
data_HfZrTiVWC5
_symmetry_space_group_name_H-M   'P 1'
_cell_length_a   4.47652109
_cell_length_b   4.47547934
_cell_length_c   22.27018503
_cell_angle_alpha   89.99316907
_cell_angle_beta   89.97008062
_cell_angle_gamma   90.02068280
_symmetry_Int_Tables_number   1
_chemical_formula_structural   HfZrTiVWC5
_chemical_formula_sum   'Hf4 Zr4 Ti4 V4 W4 C20'
_cell_volume   446.17365853
_cell_formula_units_Z   4
loop_
 _symmetry_equiv_pos_site_id
 _symmetry_equiv_pos_as_xyz
  1  'x, y, z'
loop_
 _atom_site_type_symbol
 _atom_site_label
 _atom_site_symmetry_multiplicity
 _atom_site_fract_x
 _atom_site_fract_y
 _atom_site_fract_z
 _atom_site_occupancy
  Hf  Hf0  1  0.99922291  0.49885312  0.09148209  1
  Hf  Hf1  1  0.49924229  0.49948670  0.19808360  1
  Hf  Hf2  1  0.49815367  0.50052484  0.39719175  1
  Hf  Hf3  1  0.50048171  0.00288549  0.89351453  1
  Zr  Zr4  1  0.00101710  0.99723680  0.19755632  1
  Zr  Zr5  1  -0.00197952  0.49958660  0.50358881  1
  Zr  Zr6  1  0.49791228  0.99945064  0.50395382  1
  Zr  Zr7  1  0.49534999  0.49838869  0.61058496  1
  Ti  Ti8  1  1.00023869  -0.00144998  0.99262690  1
  Ti  Ti9  1  0.50017829  1.00124047  0.09213864  1
  Ti  Ti10  1  0.99939222  0.99832325  0.39496291  1
  Ti  Ti11  1  0.99832578  0.50133975  0.89488719  1
  V  V12  1  0.50435774  0.00495131  0.29998450  1
  V  V13  1  0.52503335  0.98124374  0.71051093  1
  V  V14  1  0.00792358  0.00895893  0.79921661  1
  V  V15  1  0.49284749  0.50524313  0.79926512  1
  W  W16  1  0.49349601  0.50869824  0.99271957  1
  W  W17  1  -0.00997078  0.48041476  0.30036197  1
  W  W18  1  0.99047639  0.00747497  0.61435342  1
  W  W19  1  0.99118170  0.52409058  0.71321821  1
  C  C20  1  -0.00067895  -0.00149680  0.09057419  1
  C  C21  1  1.00717039  0.49756099  -0.00926605  1
  C  C22  1  0.50179308  0.99383517  0.99722707  1
  C  C23  1  0.50019359  0.49592679  0.09087062  1
  C  C24  1  1.00037672  0.00400746  0.30191591  1
  C  C25  1  0.00077324  0.49890653  0.20074669  1
  C  C26  1  0.50107477  -0.00078031  0.19739359  1
  C  C27  1  0.50429245  0.50180562  0.29747449  1
  C  C28  1  0.99851381  0.99864187  0.50875085  1
  C  C29  1  -0.00068333  0.50202733  0.39659642  1
  C  C30  1  0.49914232  0.00038477  0.39480840  1
  C  C31  1  0.49810433  0.49937404  0.50207617  1
  C  C32  1  0.99938585  1.00260198  0.70695953  1
  C  C33  1  -0.00217618  0.48650311  0.61204113  1
  C  C34  1  0.49731208  0.99706983  0.61325423  1
  C  C35  1  0.50300380  0.50514672  0.71054715  1
  C  C36  1  1.00082470  0.99942665  0.89380531  1
  C  C37  1  0.00770381  0.49338875  0.80219047  1
  C  C38  1  0.49861254  1.00174696  0.79676721  1
  C  C39  1  0.50336516  0.50160156  0.89482515  1
